*SPEF "1481-1998"
*DESIGN "subtractor_8bit"
*DATE "Mon Jun  2 15:16:12 2025"
*VENDOR "Synopsys, Inc."
*PROGRAM "icc2 /home/synopsys_install/icc2/W-2024.09/linux64/nwtn/bin/icc2_exec"
*VERSION "W-2024.09 Aug 25, 2024"
*DESIGN_FLOW "ICC2 SPEF DR"
*DIVIDER /
*DELIMITER :
*BUS_DELIMITER [ ]
*T_UNIT 1 NS
*C_UNIT 1 FF
*R_UNIT 1 OHM
*L_UNIT 1 HENRY

// XY_UNIT 1 UM
// PARASITIC_TECH p1 at 125.000 degree

*NAME_MAP
*1 clk
*2 a[7]
*3 a[6]
*4 a[5]
*5 a[4]
*6 a[3]
*7 a[2]
*8 a[1]
*9 a[0]
*10 b[7]
*11 b[6]
*12 b[5]
*13 b[4]
*14 b[3]
*15 b[2]
*16 b[1]
*17 b[0]
*18 result[7]
*19 result[6]
*20 result[5]
*21 result[4]
*22 result[3]
*23 result[2]
*24 result[1]
*25 result[0]
*26 VDD
*27 VSS
*28 count_reg[0]
*29 count_reg[1]
*30 count_reg[2]
*31 b_reg_reg[7]
*32 b_reg_reg[6]
*33 b_reg_reg[5]
*34 b_reg_reg[4]
*35 b_reg_reg[3]
*36 b_reg_reg[2]
*37 b_reg_reg[1]
*38 b_reg_reg[0]
*39 a_reg_reg[7]
*40 a_reg_reg[6]
*41 a_reg_reg[5]
*42 a_reg_reg[4]
*43 a_reg_reg[3]
*44 a_reg_reg[2]
*45 a_reg_reg[1]
*46 a_reg_reg[0]
*47 result_reg[7]
*48 result_reg[6]
*49 result_reg[5]
*50 result_reg[4]
*51 result_reg[3]
*52 result_reg[2]
*53 result_reg[1]
*54 result_reg[0]
*55 U88
*56 U89
*57 U90
*58 U91
*59 U92
*60 HFSINV_978_820
*61 U94
*62 U95
*63 U96
*64 U97
*65 U98
*66 U99
*67 U100
*68 U101
*69 U102
*70 U103
*71 U104
*72 U105
*73 U106
*74 U107
*75 U108
*76 U109
*77 U110
*78 U111
*79 U112
*80 U113
*81 U114
*82 U115
*83 U116
*84 U117
*85 U118
*86 U119
*87 U120
*88 U121
*89 U122
*90 U123
*91 HFSINV_1079_821
*92 U125
*93 U126
*94 U127
*95 U128
*96 U129
*97 U130
*98 U131
*99 U132
*100 U133
*101 U134
*102 U135
*103 U136
*104 U137
*105 U138
*106 U139
*107 U140
*108 U141
*109 U142
*110 U143
*111 U144
*112 U145
*113 U146
*114 U147
*115 U148
*116 U149
*117 U150
*118 U151
*119 U152
*120 U153
*121 U154
*122 U155
*123 U156
*124 U157
*125 U158
*126 U159
*127 U160
*128 U161
*129 U162
*130 U163
*131 U164
*132 U165
*133 U166
*134 U167
*135 U168
*136 U169
*137 U170
*138 U171
*139 U172
*140 U173
*141 U174
*142 U175
*143 U176
*144 U177
*145 U178
*146 U179
*147 U180
*148 U181
*149 U182
*150 U183
*151 U184
*152 HFSBUF_678_822
*153 ropt_h_inst_1383
*154 N15
*155 N16
*156 n57
*157 n58
*158 n59
*159 n60
*160 n61
*161 n62
*162 n63
*163 n64
*164 n65
*165 n66
*166 n67
*167 n68
*168 n69
*169 n70
*170 n71
*171 n72
*172 n73
*173 n74
*174 n75
*175 n76
*176 n77
*177 n78
*178 n79
*179 n80
*180 n82
*181 n83
*182 n84
*183 n85
*184 n86
*185 n87
*186 n88
*187 n89
*188 n90
*189 n91
*190 n92
*191 n93
*192 n94
*193 n95
*194 n96
*195 n97
*196 n98
*197 n99
*198 n100
*199 n101
*200 n102
*201 n103
*202 n104
*203 n105
*204 n106
*205 n107
*206 n108
*207 n109
*208 n110
*209 n111
*210 n112
*211 n113
*212 n114
*213 n115
*214 n116
*215 n117
*216 HFSNET_1
*217 n119
*218 n120
*219 n121
*220 n122
*221 n123
*222 n124
*223 n125
*224 n126
*225 n127
*226 n128
*227 n129
*228 n130
*229 n131
*230 n132
*231 n133
*232 n134
*233 n135
*234 n136
*235 n137
*236 n138
*237 n139
*238 n140
*239 n141
*240 n142
*241 n143
*242 n144
*243 n145
*244 n146
*245 n147
*246 n148
*247 n149
*248 n150
*249 n151
*250 HFSNET_0
*251 n153
*252 n154
*253 n155
*254 n156
*255 n157
*256 n158
*257 n159
*258 n160
*259 n161
*260 n162
*261 HFSNET_2
*262 count[2]
*263 count[1]
*264 count[0]
*265 a_reg[7]
*266 a_reg[6]
*267 a_reg[5]
*268 a_reg[4]
*269 a_reg[3]
*270 a_reg[2]
*271 a_reg[1]
*272 a_reg[0]
*273 b_reg[7]
*274 b_reg[6]
*275 b_reg[5]
*276 b_reg[4]
*277 b_reg[3]
*278 b_reg[2]
*279 b_reg[1]
*280 b_reg[0]
*281 ropt_net_0

*PORTS

*1 I *C 17.537 19.024
*2 I *C 25.560 0.143
*3 I *C 20.088 0.143
*4 I *C 16.592 0.143
*5 I *C 12.488 0.143
*6 I *C 7.928 0.143
*7 I *C 3.368 0.143
*8 I *C 31.217 6.560
*9 I *C 31.217 7.168
*10 I *C 31.217 3.824
*11 I *C 27.688 17.233
*12 I *C 24.648 17.233
*13 I *C 21.456 17.233
*14 I *C 17.537 24.496
*15 I *C 17.537 21.152
*16 I *C 14.312 30.609
*17 I *C 11.272 30.609
*18 O *C 5.344 30.609
*19 O *C 0.143 23.888
*20 O *C 0.143 23.280
*21 O *C 0.143 21.152
*22 O *C 0.143 17.504
*23 O *C 0.143 8.384
*24 O *C 10.968 0.143
*25 O *C 5.496 0.143
*26 I *C 15.680 15.376
*27 I *C 15.680 15.376

*D_NET *1 11.854 //LENGTH 131.887 LUMPCC 0 DR

*CONN
*P *1 I *L 0 *C 17.504 19.024
*I *34:CLK I *L 0.714381 *C 17.960 12.184
*I *36:CLK I *L 0.714381 *C 16.288 11.880
*I *31:CLK I *L 0.714381 *C 21.760 5.192
*I *39:CLK I *L 0.714381 *C 21.715 2.152
*I *44:CLK I *L 0.714381 *C 5.384 8.536
*I *52:CLK I *L 0.714381 *C 6.672 8.536
*I *54:CLK I *L 0.714381 *C 6.560 8.840
*I *43:CLK I *L 0.714381 *C 6.864 12.184
*I *47:CLK I *L 0.714381 *C 2.760 21.912
*I *28:CLK I *L 0.714381 *C 2.715 25.256
*I *30:CLK I *L 0.714381 *C 2.715 25.560
*I *49:CLK I *L 0.714381 *C 8.992 22.216
*I *48:CLK I *L 0.714381 *C 8.688 21.912
*I *35:CLK I *L 0.714381 *C 11.120 25.560
*I *29:CLK I *L 0.714381 *C 8.992 28.600
*I *50:CLK I *L 0.714381 *C 5.344 18.872
*I *42:CLK I *L 0.714381 *C 7.731 15.224
*I *51:CLK I *L 0.714381 *C 7.928 15.528
*I *38:CLK I *L 0.714381 *C 8.040 18.568
*I *45:CLK I *L 0.714381 *C 17.763 5.192
*I *46:CLK I *L 0.714381 *C 18.072 5.496
*I *53:CLK I *L 0.714381 *C 13.552 8.840
*I *37:CLK I *L 0.714381 *C 12.184 18.568
*I *33:CLK I *L 0.714381 *C 17.763 11.880
*I *40:CLK I *L 0.714381 *C 21.760 8.840
*I *32:CLK I *L 0.714381 *C 21.608 11.880
*I *41:CLK I *L 0.714381 *C 17.763 8.840
*N *1:28 *C 17.808 8.840
*N *1:29 *C 17.808 8.853
*N *1:30 *C 21.608 11.867
*N *1:31 *C 21.760 8.854
*N *1:32 *C 21.760 8.992
*N *1:33 *C 21.608 8.992
*N *1:34 *C 21.595 8.992
*N *1:35 *C 17.822 8.992
*N *1:36 *C 17.808 9.005
*N *1:37 *C 17.808 11.880
*N *1:38 *C 17.808 11.867
*N *1:39 *C 17.808 11.727
*N *1:40 *C 17.822 11.728
*N *1:41 *C 18.555 11.728
*N *1:42 *C 18.568 11.742
*N *1:43 *C 18.568 12.183
*N *1:44 *C 18.567 12.336
*N *1:45 *C 12.184 18.555
*N *1:46 *C 12.184 12.350
*N *1:47 *C 12.197 12.336
*N *1:48 *C 13.552 8.854
*N *1:49 *C 13.552 12.336
*N *1:50 *C 13.436 12.336
*N *1:51 *C 13.435 12.336
*N *1:52 *C 17.973 5.496
*N *1:53 *C 17.960 5.510
*N *1:54 *C 17.960 5.648
*N *1:55 *C 17.808 5.192
*N *1:56 *C 17.808 5.206
*N *1:57 *C 17.808 5.648
*N *1:58 *C 17.794 5.648
*N *1:59 *C 7.941 18.568
*N *1:60 *C 7.928 18.555
*N *1:61 *C 7.928 15.542
*N *1:62 *C 7.928 15.680
*N *1:63 *C 7.776 15.680
*N *1:64 *C 7.776 15.224
*N *1:65 *C 7.776 15.224
*N *1:66 *C 7.776 14.782
*N *1:67 *C 7.763 14.768
*N *1:68 *C 5.496 14.768
*N *1:69 *C 5.344 18.858
*N *1:70 *C 5.344 18.430
*N *1:71 *C 5.331 18.416
*N *1:72 *C 8.992 28.587
*N *1:73 *C 8.992 28.158
*N *1:74 *C 8.979 28.144
*N *1:75 *C 11.120 25.548
*N *1:76 *C 11.120 25.408
*N *1:77 *C 11.107 25.408
*N *1:78 *C 9.144 25.408
*N *1:79 *C 9.144 25.104
*N *1:80 *C 8.688 21.912
*N *1:81 *C 8.688 22.052
*N *1:82 *C 8.702 22.064
*N *1:83 *C 8.979 22.064
*N *1:84 *C 8.992 22.076
*N *1:85 *C 8.992 22.230
*N *1:86 *C 8.992 25.091
*N *1:87 *C 8.992 25.104
*N *1:88 *C 7.169 25.104
*N *1:89 *C 7.168 25.105
*N *1:90 *C 7.168 28.131
*N *1:91 *C 7.168 28.144
*N *1:92 *C 2.925 28.144
*N *1:93 *C 2.912 28.131
*N *1:94 *C 2.912 25.712
*N *1:95 *C 2.760 25.712
*N *1:96 *C 2.760 25.560
*N *1:97 *C 2.760 25.560
*N *1:98 *C 2.760 25.256
*N *1:99 *C 2.760 25.256
*N *1:100 *C 2.760 21.912
*N *1:101 *C 2.760 18.569
*N *1:102 *C 2.760 18.428
*N *1:103 *C 2.774 18.416
*N *1:104 *C 4.584 18.416
*N *1:105 *C 4.584 18.402
*N *1:106 *C 4.584 15.225
*N *1:107 *C 4.584 15.085
*N *1:108 *C 4.598 15.072
*N *1:109 *C 5.496 15.071
*N *1:110 *C 5.496 15.059
*N *1:111 *C 6.864 12.197
*N *1:112 *C 6.864 12.627
*N *1:113 *C 6.851 12.640
*N *1:114 *C 5.510 12.640
*N *1:115 *C 5.496 12.640
*N *1:116 *C 6.560 8.828
*N *1:117 *C 6.573 8.536
*N *1:118 *C 6.560 8.549
*N *1:119 *C 6.560 8.688
*N *1:120 *C 6.546 8.688
*N *1:121 *C 5.510 8.688
*N *1:122 *C 5.496 8.702
*N *1:123 *C 5.484 8.536
*N *1:124 *C 5.496 8.535
*N *1:125 *C 5.496 5.662
*N *1:126 *C 5.510 5.648
*N *1:127 *C 16.744 5.648
*N *1:128 *C 16.744 5.662
*N *1:129 *C 21.760 2.152
*N *1:130 *C 21.760 2.166
*N *1:131 *C 21.760 5.179
*N *1:132 *C 21.760 5.039
*N *1:133 *C 21.774 5.040
*N *1:134 *C 23.571 5.040
*N *1:135 *C 23.584 5.054
*N *1:136 *C 23.584 7.459
*N *1:137 *C 23.584 7.473
*N *1:138 *C 23.584 8.080
*N *1:139 *C 16.758 8.080
*N *1:140 *C 16.744 8.080
*N *1:141 *C 16.288 11.880
*N *1:142 *C 16.288 12.020
*N *1:143 *C 16.302 12.032
*N *1:144 *C 16.730 12.032
*N *1:145 *C 16.744 12.032
*N *1:146 *C 16.744 12.322
*N *1:147 *C 16.744 12.336
*N *1:148 *C 18.555 12.336
*N *1:149 *C 18.568 12.324
*N *1:150 *C 17.960 12.197
*N *1:151 *C 17.960 12.336
*N *1:152 *C 17.960 15.528
*N *1:153 *C 17.504 15.528
*N *1:154 *C 17.504 19.011

*CAP
0 *1 0.001
1 *34:CLK 0.001
2 *36:CLK 0.001
3 *31:CLK 0.001
4 *39:CLK 0.01084247
5 *44:CLK 0.01398239
6 *52:CLK 0.01699703
7 *54:CLK 0.001
8 *43:CLK 0.001
9 *47:CLK 0.001
10 *28:CLK 0.01012402
11 *30:CLK 0.01012403
12 *49:CLK 0.001
13 *48:CLK 0.001
14 *35:CLK 0.001
15 *29:CLK 0.001
16 *50:CLK 0.001
17 *42:CLK 0.01020432
18 *51:CLK 0.001
19 *38:CLK 0.01522617
20 *45:CLK 0.01079788
21 *46:CLK 0.01452545
22 *53:CLK 0.001
23 *37:CLK 0.001
24 *33:CLK 0.01181635
25 *40:CLK 0.001
26 *32:CLK 0.001
27 *41:CLK 0.01222361
28 *1:28 0.01014821
29 *1:29 0.009357275
30 *1:30 0.1577811
31 *1:31 0.00843004
32 *1:32 0.02083599
33 *1:33 0.1678148
34 *1:34 0.1402867
35 *1:35 0.1402867
36 *1:36 0.1409286
37 *1:37 0.009740951
38 *1:38 0.0121237
39 *1:39 0.143695
40 *1:40 0.04091866
41 *1:41 0.04091866
42 *1:42 0.0226765
43 *1:43 0.0330048
44 *1:44 0.003772386
45 *1:45 0.3146836
46 *1:46 0.3161162
47 *1:47 0.05177729
48 *1:48 0.1622114
49 *1:49 0.1737692
50 *1:50 0.005380736
51 *1:51 0.1794736
52 *1:52 0.01245005
53 *1:53 0.01514999
54 *1:54 0.02625405
55 *1:55 0.008722479
56 *1:56 0.03113837
57 *1:57 0.03987021
58 *1:58 0.04337937
59 *1:59 0.01315077
60 *1:60 0.1560716
61 *1:61 0.008176461
62 *1:62 0.1796232
63 *1:63 0.03413957
64 *1:64 0.008128922
65 *1:65 0.04858889
66 *1:66 0.02364733
67 *1:67 0.1010309
68 *1:68 0.117332
69 *1:69 0.03366748
70 *1:70 0.03510016
71 *1:71 0.0343442
72 *1:72 0.02011371
73 *1:73 0.02154639
74 *1:74 0.06887133
75 *1:75 0.008096699
76 *1:76 0.009529376
77 *1:77 0.07990673
78 *1:78 0.09539057
79 *1:79 0.02112267
80 *1:80 0.008582843
81 *1:81 0.01001552
82 *1:82 0.01351529
83 *1:83 0.01351529
84 *1:84 0.0104367
85 *1:85 0.1502589
86 *1:86 0.1388827
87 *1:87 0.09051358
88 *1:88 0.08250309
89 *1:89 0.1242818
90 *1:90 0.1242818
91 *1:91 0.2181963
92 *1:92 0.1469522
93 *1:93 0.09812474
94 *1:94 0.1090605
95 *1:95 0.01846625
96 *1:96 0.008048628
97 *1:97 0.02099949
98 *1:98 0.008048626
99 *1:99 0.1487119
100 *1:100 0.2778101
101 *1:101 0.1540899
102 *1:102 0.007717814
103 *1:103 0.07482714
104 *1:104 0.1115436
105 *1:105 0.1630462
106 *1:106 0.1759177
107 *1:107 0.008127021
108 *1:108 0.04292649
109 *1:109 0.05685543
110 *1:110 0.1519725
111 *1:111 0.02545962
112 *1:112 0.0268923
113 *1:113 0.06354963
114 *1:114 0.06354963
115 *1:115 0.392914
116 *1:116 0.006135497
117 *1:117 0.01492163
118 *1:118 0.007864996
119 *1:119 0.01750857
120 *1:120 0.04589032
121 *1:121 0.04589032
122 *1:122 0.2541
123 *1:123 0.01190699
124 *1:124 0.1687765
125 *1:125 0.152949
126 *1:126 0.4980002
127 *1:127 0.5437518
128 *1:128 0.1479546
129 *1:129 0.008767072
130 *1:130 0.1269371
131 *1:131 0.008542747
132 *1:132 0.1389879
133 *1:133 0.07649262
134 *1:134 0.07649262
135 *1:135 0.1195983
136 *1:136 0.1195983
137 *1:137 0.02118823
138 *1:138 0.2813857
139 *1:139 0.2554531
140 *1:140 0.339915
141 *1:141 0.008781312
142 *1:142 0.01021399
143 *1:143 0.0226124
144 *1:144 0.0226124
145 *1:145 0.2060384
146 *1:146 0.01407797
147 *1:147 0.207734
148 *1:148 0.08003771
149 *1:149 0.03744945
150 *1:150 0.007558931
151 *1:151 0.1890598
152 *1:152 0.1731176
153 *1:153 0.1582102
154 *1:154 0.1323472

*RES
0 *1 *1:154 0.5
1 *1:131 *31:CLK 1
2 *1:129 *39:CLK 0.09166668
3 *1:130 *1:129 1
4 *1:31 *40:CLK 1
5 *1:30 *32:CLK 1
6 *1:150 *34:CLK 1
7 *1:52 *46:CLK 0.1658334
8 *1:53 *1:52 1
9 *1:42 *1:41 0.5
10 *1:41 *1:40 1.308929
11 *1:39 *1:38 0.2341667
12 *1:39 *1:36 4.859822
13 *1:40 *1:39 0.5
14 *1:33 *1:32 0.2714286
15 *1:33 *1:30 5.133036
16 *1:34 *1:33 0.5
17 *1:36 *1:35 0.5
18 *1:36 *1:29 0.255
19 *1:35 *1:34 6.7375
20 *1:37 *33:CLK 0.09166668
21 *1:38 *1:37 1
22 *1:28 *41:CLK 0.09166668
23 *1:29 *1:28 1
24 *1:55 *45:CLK 0.09166668
25 *1:56 *1:55 1
26 *1:154 *1:153 6.21875
27 *1:149 *1:148 0.5
28 *1:149 *1:44 0.001
29 *1:149 *1:43 0.2341667
30 *1:148 *1:147 3.233036
31 *1:57 *1:56 0.7901786
32 *1:57 *1:54 0.2714286
33 *1:58 *1:57 0.5
34 *1:146 *1:145 0.5187501
35 *1:147 *1:146 0.5
36 *1:147 *1:51 5.908929
37 *1:128 *1:127 0.5
38 *1:127 *1:126 20.06161
39 *1:127 *1:58 1.875893
40 *1:132 *1:131 0.2341667
41 *1:132 *1:130 5.13125
42 *1:133 *1:132 0.5
43 *1:135 *1:134 0.5
44 *1:134 *1:133 3.208929
45 *1:136 *1:135 4.294643
46 *1:137 *1:136 0.5
47 *1:140 *1:139 0.5
48 *1:140 *1:128 4.31875
49 *1:139 *1:138 12.19018
50 *1:145 *1:144 0.5
51 *1:145 *1:140 7.057143
52 *1:144 *1:143 0.7660714
53 *1:142 *1:141 0.2325
54 *1:143 *1:142 0.5
55 *1:141 *36:CLK 1
56 *1:50 *1:49 0.2071429
57 *1:51 *1:50 0.5
58 *1:51 *1:47 2.209822
59 *1:48 *53:CLK 1
60 *1:46 *1:45 11.08036
61 *1:47 *1:46 0.5
62 *1:45 *37:CLK 1
63 *1:76 *1:75 0.2325
64 *1:77 *1:76 0.5
65 *1:75 *35:CLK 1
66 *1:86 *1:85 5.108929
67 *1:87 *1:86 0.5
68 *1:87 *1:79 0.2714286
69 *1:85 *49:CLK 1
70 *1:85 *1:84 0.255
71 *1:84 *1:83 0.5
72 *1:83 *1:82 0.4946429
73 *1:81 *1:80 0.2325
74 *1:82 *1:81 0.5
75 *1:80 *48:CLK 1
76 *1:59 *38:CLK 0.1658333
77 *1:60 *1:59 1
78 *1:61 *51:CLK 1
79 *1:64 *42:CLK 0.09166668
80 *1:65 *1:64 1
81 *1:65 *1:63 0.8142858
82 *1:73 *1:72 0.7660714
83 *1:74 *1:73 0.5
84 *1:72 *29:CLK 1
85 *1:88 *1:87 3.255358
86 *1:89 *1:88 0.5
87 *1:91 *1:90 0.5
88 *1:91 *1:74 3.233036
89 *1:90 *1:89 5.402678
90 *1:116 *54:CLK 1
91 *1:117 *52:CLK 0.1658334
92 *1:118 *1:117 1
93 *1:66 *1:65 0.7901786
94 *1:67 *1:66 0.5
95 *1:110 *1:109 0.5
96 *1:109 *1:108 1.604464
97 *1:109 *1:68 0.5410715
98 *1:115 *1:114 0.5
99 *1:115 *1:110 4.31875
100 *1:114 *1:113 2.394643
101 *1:112 *1:111 0.7660714
102 *1:113 *1:112 0.5
103 *1:111 *43:CLK 1
104 *1:119 *1:118 0.2325
105 *1:119 *1:116 0.2325
106 *1:120 *1:119 0.5
107 *1:122 *1:121 0.5
108 *1:122 *1:115 7.033036
109 *1:121 *1:120 1.851786
110 *1:125 *1:124 5.13125
111 *1:126 *1:125 0.5
112 *1:123 *44:CLK 0.1658334
113 *1:124 *1:123 1
114 *1:124 *1:122 0.2775
115 *1:70 *1:69 0.7660714
116 *1:71 *1:70 0.5
117 *1:69 *50:CLK 1
118 *1:107 *1:106 0.2341667
119 *1:108 *1:107 0.5
120 *1:105 *1:104 0.5
121 *1:104 *1:103 3.233036
122 *1:104 *1:71 1.333036
123 *1:93 *1:92 0.5
124 *1:92 *1:91 7.575893
125 *1:100 *47:CLK 1
126 *1:100 *1:99 5.971429
127 *1:102 *1:101 0.2341667
128 *1:103 *1:102 0.5
129 *1:96 *30:CLK 0.09166668
130 *1:97 *1:96 1
131 *1:97 *1:95 0.2714286
132 *1:98 *28:CLK 0.09166668
133 *1:99 *1:98 1
134 *1:99 *1:97 0.5428572
135 *1:101 *1:100 5.969644
136 *1:95 *1:94 0.2714286
137 *1:94 *1:93 4.31875
138 *1:106 *1:105 5.674108
139 *1:63 *1:62 0.2714286
140 *1:62 *1:61 0.2473214
141 *1:62 *1:60 5.133036
142 *1:49 *1:48 6.21875
143 *1:153 *1:152 0.8142858
144 *1:152 *1:151 5.7
145 *1:54 *1:53 0.2473214
146 *1:151 *1:150 0.2473214
147 *1:151 *1:149 1.085714
148 *1:43 *1:42 0.7883929
149 *1:32 *1:31 0.2473214
150 *1:68 *1:67 4.047321
151 *1:79 *1:78 0.5428572
152 *1:78 *1:77 3.504465
153 *1:138 *1:137 1.083929

*END

*D_NET *2 0.6238205 //LENGTH 6.316 LUMPCC 0 DR

*CONN
*P *2 I *L 0 *C 25.560 0.258
*I *116:A2 I *L 0.557409 *C 27.262 2.937
*N *2:2 *C 27.384 2.912
*N *2:3 *C 27.384 2.913
*N *2:4 *C 27.384 3.506
*N *2:5 *C 27.370 3.520
*N *2:6 *C 25.878 3.520
*N *2:7 *C 25.864 3.506
*N *2:8 *C 25.864 0.494
*N *2:9 *C 25.851 0.480
*N *2:10 *C 25.574 0.480
*N *2:11 *C 25.560 0.467

*CAP
0 *2 0.01292283
1 *116:A2 0.01152052
2 *2:2 0.01853142
3 *2:3 0.03919954
4 *2:4 0.03890272
5 *2:5 0.06638243
6 *2:6 0.06638243
7 *2:7 0.1694247
8 *2:8 0.1694247
9 *2:9 0.01028934
10 *2:10 0.01028934
11 *2:11 0.01055062

*RES
0 *2 *2:11 0.3723215
1 *2:2 *116:A2 0.244
2 *2:3 *2:2 1
3 *2:4 *2:3 1.059821
4 *2:5 *2:4 0.5
5 *2:7 *2:6 0.5
6 *2:6 *2:5 2.666071
7 *2:8 *2:7 5.380358
8 *2:9 *2:8 0.5
9 *2:11 *2:10 0.5
10 *2:10 *2:9 0.4946429

*END

*D_NET *3 0.2381761 //LENGTH 3.207 LUMPCC 0 DR

*CONN
*P *3 I *L 0 *C 20.088 0.272
*I *119:A2 I *L 0.557409 *C 19.632 2.912
*N *3:2 *C 19.646 2.912
*N *3:3 *C 20.088 2.912

*CAP
0 *3 0.09969319
1 *119:A2 0.001
2 *3:2 0.01699239
3 *3:3 0.1204905

*RES
0 *3 *3:3 4.714286
1 *3:2 *119:A2 1
2 *3:3 *3:2 0.7901786

*END

*D_NET *4 0.3887958 //LENGTH 5.105 LUMPCC 0 DR

*CONN
*P *4 I *L 0 *C 16.592 0.258
*I *122:A2 I *L 0.557409 *C 17.808 2.912
*N *4:2 *C 17.808 2.730
*N *4:3 *C 17.808 2.900
*N *4:4 *C 17.794 2.912
*N *4:5 *C 16.302 2.912
*N *4:6 *C 16.288 2.899
*N *4:7 *C 16.288 0.494
*N *4:8 *C 16.302 0.480
*N *4:9 *C 16.579 0.480
*N *4:10 *C 16.592 0.467

*CAP
0 *4 0.01303107
1 *122:A2 0.001
2 *4:2 0.01286274
3 *4:3 0.006685629
4 *4:4 0.06509779
5 *4:5 0.06509779
6 *4:6 0.09661155
7 *4:7 0.09661155
8 *4:8 0.01056941
9 *4:9 0.01056941
10 *4:10 0.01065885

*RES
0 *4 *4:10 0.3723215
1 *4:3 *122:A2 1
2 *4:3 *4:2 0.2825
3 *4:4 *4:3 0.5
4 *4:6 *4:5 0.5
5 *4:5 *4:4 2.666071
6 *4:7 *4:6 4.294643
7 *4:8 *4:7 0.5
8 *4:10 *4:9 0.5
9 *4:9 *4:8 0.4946429

*END

*D_NET *5 0.551632 //LENGTH 6.846 LUMPCC 0 DR

*CONN
*P *5 I *L 0 *C 12.488 0.258
*I *125:A2 I *L 0.557409 *C 9.296 2.912
*N *5:2 *C 9.296 2.899
*N *5:3 *C 9.296 2.317
*N *5:4 *C 9.309 2.304
*N *5:5 *C 12.171 2.304
*N *5:6 *C 12.184 2.304
*N *5:7 *C 12.184 0.494
*N *5:8 *C 12.197 0.480
*N *5:9 *C 12.475 0.480
*N *5:10 *C 12.488 0.467

*CAP
0 *5 0.01303777
1 *125:A2 0.001
2 *5:2 0.02785865
3 *5:3 0.02929133
4 *5:4 0.123412
5 *5:5 0.123412
6 *5:6 0.1008254
7 *5:7 0.1008254
8 *5:8 0.01065188
9 *5:9 0.01065188
10 *5:10 0.01066555

*RES
0 *5 *5:10 0.3723215
1 *5:2 *125:A2 1
2 *5:3 *5:2 1.0375
3 *5:4 *5:3 0.5
4 *5:6 *5:5 0.5
5 *5:5 *5:4 5.108929
6 *5:7 *5:6 3.233036
7 *5:8 *5:7 0.5
8 *5:10 *5:9 0.5
9 *5:9 *5:8 0.4946429

*END

*D_NET *6 0.3681082 //LENGTH 3.818 LUMPCC 0 DR

*CONN
*P *6 I *L 0 *C 7.928 0.258
*I *128:A2 I *L 0.557409 *C 7.928 2.912
*N *6:2 *C 7.928 2.780
*N *6:3 *C 7.928 2.900
*N *6:4 *C 7.927 2.912
*N *6:5 *C 7.638 2.912
*N *6:6 *C 7.624 2.899
*N *6:7 *C 7.624 2.304
*N *6:8 *C 7.776 2.304
*N *6:9 *C 7.776 0.480
*N *6:10 *C 7.928 0.480

*CAP
0 *6 0.01475579
1 *128:A2 0.001
2 *6:2 0.01378871
3 *6:3 0.007611594
4 *6:4 0.01564072
5 *6:5 0.01564072
6 *6:6 0.0372561
7 *6:7 0.04845726
8 *6:8 0.09703243
9 *6:9 0.09518629
10 *6:10 0.02173859

*RES
0 *6 *6:10 0.3964286
1 *6:3 *128:A2 1
2 *6:3 *6:2 0.1991667
3 *6:4 *6:3 0.5
4 *6:6 *6:5 0.5
5 *6:5 *6:4 0.5169643
6 *6:7 *6:6 1.061607
7 *6:8 *6:7 0.2714286
8 *6:9 *6:8 3.257143
9 *6:10 *6:9 0.2714286

*END

*D_NET *7 0.3651264 //LENGTH 5.022 LUMPCC 0 DR

*CONN
*P *7 I *L 0 *C 3.368 0.258
*I *131:A2 I *L 0.557409 *C 4.432 2.912
*N *7:2 *C 4.432 2.899
*N *7:3 *C 4.432 2.622
*N *7:4 *C 4.418 2.608
*N *7:5 *C 3.078 2.608
*N *7:6 *C 3.064 2.608
*N *7:7 *C 3.064 0.494
*N *7:8 *C 3.078 0.480
*N *7:9 *C 3.355 0.480
*N *7:10 *C 3.368 0.467

*CAP
0 *7 0.01294295
1 *131:A2 0.001
2 *7:2 0.01329581
3 *7:3 0.01472848
4 *7:4 0.05139058
5 *7:5 0.05139058
6 *7:6 0.09464155
7 *7:7 0.09464155
8 *7:8 0.01026206
9 *7:9 0.01026206
10 *7:10 0.01057073

*RES
0 *7 *7:10 0.3723215
1 *7:2 *131:A2 1
2 *7:3 *7:2 0.4946428
3 *7:4 *7:3 0.5
4 *7:6 *7:5 0.5
5 *7:5 *7:4 2.394643
6 *7:7 *7:6 3.775893
7 *7:8 *7:7 0.5
8 *7:10 *7:9 0.5
9 *7:9 *7:8 0.4946429

*END

*D_NET *8 0.1881412 //LENGTH 2.667 LUMPCC 0 DR

*CONN
*P *8 I *L 0 *C 31.102 6.560
*I *134:A2 I *L 0.557409 *C 28.904 6.256
*N *8:2 *C 28.904 6.270
*N *8:3 *C 28.904 6.546
*N *8:4 *C 28.918 6.560

*CAP
0 *8 0.07280777
1 *134:A2 0.001
2 *8:2 0.02123257
3 *8:3 0.02266525
4 *8:4 0.07043555

*RES
0 *8 *8:4 3.900893
1 *8:2 *134:A2 1
2 *8:3 *8:2 0.4946429
3 *8:4 *8:3 0.5

*END

*D_NET *9 0.2265685 //LENGTH 3.378 LUMPCC 0 DR

*CONN
*P *9 I *L 0 *C 31.102 7.168
*I *137:A2 I *L 0.557409 *C 28.904 7.804
*N *9:2 *C 29.056 7.594
*N *9:3 *C 29.044 7.776
*N *9:4 *C 29.056 7.764
*N *9:5 *C 29.070 7.776
*N *9:6 *C 30.867 7.776
*N *9:7 *C 30.880 7.763
*N *9:8 *C 30.880 7.182
*N *9:9 *C 30.894 7.168

*CAP
0 *9 0.01108311
1 *137:A2 0.01360648
2 *9:2 0.01372415
3 *9:3 0.01153108
4 *9:4 0.009276531
5 *9:5 0.05884106
6 *9:6 0.05884161
7 *9:7 0.02047653
8 *9:8 0.02047653
9 *9:9 0.008711438

*RES
0 *9 *9:9 0.3723215
1 *9:3 *137:A2 0.2325
2 *9:4 *9:3 1
3 *9:4 *9:2 0.2825
4 *9:5 *9:4 0.5
5 *9:6 *9:5 3.208929
6 *9:7 *9:6 0.5
7 *9:9 *9:8 0.5
8 *9:8 *9:7 1.0375

*END

*D_NET *10 0.2177262 //LENGTH 3.480 LUMPCC 0 DR

*CONN
*P *10 I *L 0 *C 31.081 3.824
*I *92:A2 I *L 0.557409 *C 28.904 2.912
*N *10:2 *C 28.904 2.925
*N *10:3 *C 28.904 3.203
*N *10:4 *C 28.918 3.216
*N *10:5 *C 31.019 3.216
*N *10:6 *C 31.032 3.230
*N *10:7 *C 31.032 3.811
*N *10:8 *C 31.032 3.824

*CAP
0 *10 0.005059648
1 *92:A2 0.001
2 *10:2 0.01637868
3 *10:3 0.01781136
4 *10:4 0.06514244
5 *10:5 0.06514244
6 *10:6 0.02225209
7 *10:7 0.02225209
8 *10:8 0.00268743

*RES
0 *10 *10:8 0.09166668
1 *10:2 *92:A2 1
2 *10:3 *10:2 0.4946429
3 *10:4 *10:3 0.5
4 *10:6 *10:5 0.5
5 *10:5 *10:4 3.751786
6 *10:7 *10:6 1.0375
7 *10:8 *10:7 0.5

*END

*D_NET *11 0.3684677 //LENGTH 4.384 LUMPCC 0 DR

*CONN
*P *11 I *L 0 *C 27.688 17.118
*I *95:A2 I *L 0.557409 *C 28.114 14.489
*N *11:2 *C 27.399 14.464
*N *11:3 *C 27.383 14.464
*N *11:4 *C 27.232 14.464
*N *11:5 *C 27.232 16.896
*N *11:6 *C 27.383 16.896
*N *11:7 *C 27.398 16.896
*N *11:8 *C 27.675 16.896
*N *11:9 *C 27.688 16.910

*CAP
0 *11 0.01200133
1 *95:A2 0.052409
2 *11:2 0.0503336
3 *11:3 0.00643541
4 *11:4 0.1066069
5 *11:5 0.1052784
6 *11:6 0.00481008
7 *11:7 0.01048192
8 *11:8 0.01048192
9 *11:9 0.009629108

*RES
0 *11 *11:9 0.3723215
1 *11:2 *95:A2 1.43
2 *11:3 *11:2 1
3 *11:6 *11:5 0.2696429
4 *11:7 *11:6 0.5
5 *11:9 *11:8 0.5
6 *11:8 *11:7 0.4946429
7 *11:4 *11:3 0.2696429
8 *11:5 *11:4 4.342858

*END

*D_NET *12 0.2977037 //LENGTH 3.495 LUMPCC 0 DR

*CONN
*P *12 I *L 0 *C 24.648 17.104
*I *98:A2 I *L 0.557409 *C 25.393 14.489
*N *12:2 *C 24.663 14.464
*N *12:3 *C 24.648 14.478

*CAP
0 *12 0.09976713
1 *98:A2 0.05116012
2 *12:2 0.04908472
3 *12:3 0.09769172

*RES
0 *12 *12:3 4.690179
1 *12:2 *98:A2 1.46
2 *12:3 *12:2 1

*END

*D_NET *13 0.4509721 //LENGTH 5.892 LUMPCC 0 DR

*CONN
*P *13 I *L 0 *C 21.456 17.200
*I *101:A2 I *L 0.557409 *C 18.872 14.464
*N *13:2 *C 18.872 14.282
*N *13:3 *C 18.872 14.452
*N *13:4 *C 18.886 14.464
*N *13:5 *C 21.139 14.464
*N *13:6 *C 21.152 14.478
*N *13:7 *C 21.152 17.187
*N *13:8 *C 21.166 17.200
*N *13:9 *C 21.443 17.200

*CAP
0 *13 0.001
1 *101:A2 0.001
2 *13:2 0.01388914
3 *13:3 0.007712023
4 *13:4 0.09710633
5 *13:5 0.09710633
6 *13:6 0.1062482
7 *13:7 0.1062482
8 *13:8 0.01031896
9 *13:9 0.010343

*RES
0 *13 *13:9 0.5
1 *13:3 *101:A2 1
2 *13:3 *13:2 0.2825
3 *13:4 *13:3 0.5
4 *13:6 *13:5 0.5
5 *13:5 *13:4 4.023214
6 *13:7 *13:6 4.8375
7 *13:8 *13:7 0.5
8 *13:9 *13:8 0.4946429

*END

*D_NET *14 0.4949012 //LENGTH 5.871 LUMPCC 0 DR

*CONN
*P *14 I *L 0 *C 17.401 24.496
*I *104:A2 I *L 0.557409 *C 15.224 24.496
*N *14:2 *C 15.224 24.483
*N *14:3 *C 15.224 24.206
*N *14:4 *C 15.211 24.192
*N *14:5 *C 14.630 24.192
*N *14:6 *C 14.616 24.178
*N *14:7 *C 14.616 23.598
*N *14:8 *C 14.630 23.584
*N *14:9 *C 17.352 23.584
*N *14:10 *C 17.352 23.598
*N *14:11 *C 17.352 24.483
*N *14:12 *C 17.352 24.496

*CAP
0 *14 0.005088284
1 *104:A2 0.001
2 *14:2 0.02407426
3 *14:3 0.02550694
4 *14:4 0.02997359
5 *14:5 0.02997359
6 *14:6 0.03910719
7 *14:7 0.03910719
8 *14:8 0.1162904
9 *14:9 0.1162904
10 *14:10 0.03288661
11 *14:11 0.03288661
12 *14:12 0.002716066

*RES
0 *14 *14:12 0.09166668
1 *14:2 *104:A2 1
2 *14:3 *14:2 0.4946429
3 *14:4 *14:3 0.5
4 *14:6 *14:5 0.5
5 *14:5 *14:4 1.0375
6 *14:7 *14:6 1.0375
7 *14:8 *14:7 0.5
8 *14:10 *14:9 0.5
9 *14:9 *14:8 4.861607
10 *14:11 *14:10 1.580357
11 *14:12 *14:11 0.5

*END

*D_NET *15 0.3000946 //LENGTH 3.978 LUMPCC 0 DR

*CONN
*P *15 I *L 0 *C 17.504 21.152
*I *107:A2 I *L 0.557409 *C 15.376 19.632
*N *15:2 *C 15.376 19.646
*N *15:3 *C 15.376 20.530
*N *15:4 *C 15.389 20.544
*N *15:5 *C 17.491 20.544
*N *15:6 *C 17.504 20.558
*N *15:7 *C 17.504 21.139

*CAP
0 *15 0.001
1 *107:A2 0.001
2 *15:2 0.04909616
3 *15:3 0.05052884
4 *15:4 0.07990365
5 *15:5 0.07990421
6 *15:6 0.01931885
7 *15:7 0.0193429

*RES
0 *15 *15:7 0.5
1 *15:2 *107:A2 1
2 *15:3 *15:2 1.580357
3 *15:4 *15:3 0.5
4 *15:5 *15:4 3.751786
5 *15:6 *15:5 0.5
6 *15:7 *15:6 1.0375

*END

*D_NET *16 0.2377787 //LENGTH 2.959 LUMPCC 0 DR

*CONN
*P *16 I *L 0 *C 14.312 30.480
*I *110:A2 I *L 0.557409 *C 14.464 27.840
*N *16:2 *C 14.464 27.854
*N *16:3 *C 14.464 28.144
*N *16:4 *C 14.312 28.144

*CAP
0 *16 0.08953104
1 *110:A2 0.001
2 *16:2 0.01885833
3 *16:3 0.03076075
4 *16:4 0.09762856

*RES
0 *16 *16:4 4.171429
1 *16:2 *110:A2 1
2 *16:4 *16:3 0.2714286
3 *16:3 *16:2 0.5187501

*END

*D_NET *17 0.4143124 //LENGTH 5.561 LUMPCC 0 DR

*CONN
*P *17 I *L 0 *C 11.272 30.494
*I *113:A2 I *L 0.557409 *C 12.944 27.840
*N *17:2 *C 12.944 27.658
*N *17:3 *C 12.944 27.828
*N *17:4 *C 12.931 27.840
*N *17:5 *C 10.982 27.840
*N *17:6 *C 10.968 27.854
*N *17:7 *C 10.968 30.259
*N *17:8 *C 10.982 30.272
*N *17:9 *C 11.258 30.272
*N *17:10 *C 11.272 30.286

*CAP
0 *17 0.01248376
1 *113:A2 0.001
2 *17:2 0.01528985
3 *17:3 0.009112735
4 *17:4 0.0798735
5 *17:5 0.0798735
6 *17:6 0.09281571
7 *17:7 0.09281571
8 *17:8 0.01046805
9 *17:9 0.01046805
10 *17:10 0.01011154

*RES
0 *17 *17:10 0.3723215
1 *17:3 *113:A2 1
2 *17:3 *17:2 0.2825
3 *17:4 *17:3 0.5
4 *17:6 *17:5 0.5
5 *17:5 *17:4 3.480357
6 *17:7 *17:6 4.294643
7 *17:8 *17:7 0.5
8 *17:10 *17:9 0.5
9 *17:9 *17:8 0.4946429

*END

*D_NET *18 0.795723 //LENGTH 9.647 LUMPCC 0 DR

*CONN
*I *47:Q O *L 0 *C 5.800 21.456
*P *18 O *L 0 *C 5.344 30.480
*N *18:2 *C 5.344 21.608
*N *18:3 *C 5.800 21.608
*N *18:4 *C 5.800 21.470

*CAP
0 *47:Q 0.001
1 *18 0.3651122
2 *18:2 0.3857394
3 *18:3 0.03415173
4 *18:4 0.009719657

*RES
0 *47:Q *18:4 1
1 *18:4 *18:3 0.2473214
2 *18:2 *18 15.84286
3 *18:3 *18:2 0.8142858

*END

*D_NET *19 1.850812 //LENGTH 19.448 LUMPCC 0 DR

*CONN
*I *48:Q O *L 0 *C 11.728 21.456
*I *140:A5 I *L 0.569714 *C 6.256 17.656
*P *19 O *L 0 *C 0.258 23.888
*N *19:3 *C 6.243 23.888
*N *19:4 *C 6.256 23.875
*N *19:5 *C 6.256 17.657
*N *19:6 *C 6.256 22.064
*N *19:7 *C 6.270 22.064
*N *19:8 *C 7.003 22.064
*N *19:9 *C 7.016 22.050
*N *19:10 *C 7.016 21.153
*N *19:11 *C 7.017 21.152
*N *19:12 *C 11.715 21.152
*N *19:13 *C 11.728 21.166
*N *19:14 *C 11.728 21.443

*CAP
0 *48:Q 0.001
1 *140:A5 0.001
2 *19 0.2195027
3 *19:3 0.2171305
4 *19:4 0.1240917
5 *19:5 0.2668256
6 *19:6 0.3947222
7 *19:7 0.03515278
8 *19:8 0.03515278
9 *19:9 0.06511194
10 *19:10 0.06511194
11 *19:11 0.1911248
12 *19:12 0.1911248
13 *19:13 0.02259653
14 *19:14 0.02116385

*RES
0 *48:Q *19:14 1
1 *19:6 *19:5 7.869643
2 *19:6 *19:4 3.233036
3 *19:7 *19:6 0.5
4 *19:9 *19:8 0.5
5 *19:8 *19:7 1.308929
6 *19:10 *19:9 1.602679
7 *19:11 *19:10 0.5
8 *19:13 *19:12 0.5
9 *19:12 *19:11 8.388392
10 *19:14 *19:13 0.4946429
11 *19:5 *140:A5 1
12 *19:4 *19:3 0.5
13 *19:3 *19 10.68661

*END

*D_NET *20 1.357307 //LENGTH 17.775 LUMPCC 0 DR

*CONN
*I *49:Q O *L 0 *C 12.032 22.672
*P *20 O *L 0 *C 0.258 23.280
*I *142:A5 I *L 0.569714 *C 7.016 21.000
*N *20:3 *C 12.032 22.490
*N *20:4 *C 11.850 22.672
*N *20:5 *C 12.032 22.490
*N *20:6 *C 7.016 20.986
*N *20:7 *C 7.016 20.254
*N *20:8 *C 7.030 20.240
*N *20:9 *C 7.763 20.240
*N *20:10 *C 7.776 20.254
*N *20:11 *C 0.467 23.280
*N *20:12 *C 0.480 23.267
*N *20:13 *C 0.480 22.686
*N *20:14 *C 0.494 22.672
*N *20:15 *C 7.763 22.672
*N *20:16 *C 7.776 22.659
*N *20:17 *C 7.790 22.672
*N *20:18 *C 12.019 22.672
*N *20:19 *C 12.032 22.660
*N *20:20 *C 12.020 22.672
*N *20:21 *C 12.032 22.660

*CAP
0 *49:Q 0.001
1 *20 0.01182996
2 *142:A5 0.001
3 *20:3 0.01288638
4 *20:4 0.01359928
5 *20:5 0.01138338
6 *20:6 0.05368887
7 *20:7 0.05512154
8 *20:8 0.03918429
9 *20:9 0.03918483
10 *20:10 0.1017035
11 *20:11 0.009458288
12 *20:12 0.02197133
13 *20:13 0.02197133
14 *20:14 0.2561543
15 *20:15 0.2561543
16 *20:16 0.09933233
17 *20:17 0.1647389
18 *20:18 0.1647389
19 *20:19 0.006640562
20 *20:20 0.008855387
21 *20:21 0.006709267

*RES
0 *49:Q *20:21 1
1 *20:16 *20:15 0.5
2 *20:16 *20:10 4.294643
3 *20:17 *20:16 0.5
4 *20:19 *20:18 0.5
5 *20:19 *20:5 0.2825
6 *20:18 *20:17 7.551786
7 *20:20 *20:19 0.5
8 *20:20 *20:4 0.2825
9 *20:21 *20:20 0.5
10 *20:21 *20:3 0.2825
11 *20:9 *20:8 1.308929
12 *20:10 *20:9 0.5
13 *20:7 *20:6 1.308929
14 *20:8 *20:7 0.5
15 *20:6 *142:A5 1
16 *20:15 *20:14 12.98036
17 *20:14 *20:13 0.5
18 *20:13 *20:12 1.0375
19 *20:11 *20 0.3723215
20 *20:12 *20:11 0.5

*END

*D_NET *21 0.8776039 //LENGTH 10.361 LUMPCC 0 DR

*CONN
*I *50:Q O *L 0 *C 2.304 19.328
*P *21 O *L 0 *C 0.258 21.152
*I *144:A5 I *L 0.569714 *C 4.280 17.656
*N *21:3 *C 4.280 17.669
*N *21:4 *C 4.280 19.315
*N *21:5 *C 4.293 19.328
*N *21:6 *C 4.723 19.328
*N *21:7 *C 4.736 19.341
*N *21:8 *C 4.736 20.530
*N *21:9 *C 4.723 20.544
*N *21:10 *C 0.467 21.152
*N *21:11 *C 0.480 21.139
*N *21:12 *C 0.480 20.558
*N *21:13 *C 0.494 20.544
*N *21:14 *C 2.304 20.544
*N *21:15 *C 2.304 20.530
*N *21:16 *C 2.304 19.341

*CAP
0 *50:Q 0.001
1 *21 0.01082157
2 *144:A5 0.001
3 *21:3 0.1113384
4 *21:4 0.1127711
5 *21:5 0.02272457
6 *21:6 0.02272457
7 *21:7 0.05776643
8 *21:8 0.05776643
9 *21:9 0.0831687
10 *21:10 0.008449893
11 *21:11 0.01937682
12 *21:12 0.01937682
13 *21:13 0.0593854
14 *21:14 0.1449258
15 *21:15 0.07322007
16 *21:16 0.07178739

*RES
0 *50:Q *21:16 1
1 *21:8 *21:7 2.123214
2 *21:9 *21:8 0.5
3 *21:7 *21:6 0.5
4 *21:6 *21:5 0.7660714
5 *21:4 *21:3 2.9375
6 *21:5 *21:4 0.5
7 *21:3 *144:A5 1
8 *21:15 *21:14 0.5
9 *21:14 *21:13 3.233036
10 *21:14 *21:9 4.31875
11 *21:16 *21:15 2.123214
12 *21:13 *21:12 0.5
13 *21:12 *21:11 1.0375
14 *21:10 *21 0.3723215
15 *21:11 *21:10 0.5

*END

*D_NET *22 1.410212 //LENGTH 15.465 LUMPCC 0 DR

*CONN
*I *51:Q O *L 0 *C 10.968 15.984
*I *146:A5 I *L 0.569714 *C 6.104 14.312
*P *22 O *L 0 *C 0.258 17.504
*N *22:3 *C 0.480 17.504
*N *22:4 *C 0.480 16.896
*N *22:5 *C 6.104 14.325
*N *22:6 *C 6.104 14.920
*N *22:7 *C 5.952 14.920
*N *22:8 *C 5.952 16.883
*N *22:9 *C 5.952 16.896