*SPEF "1481-1998"
*DESIGN "subtractor_8bit"
*DATE "Mon Jun  2 15:15:47 2025"
*VENDOR "Synopsys, Inc."
*PROGRAM "icc2 /home/synopsys_install/icc2/W-2024.09/linux64/nwtn/bin/icc2_exec"
*VERSION "W-2024.09 Aug 25, 2024"
*DESIGN_FLOW "ICC2 SPEF DR"
*DIVIDER /
*DELIMITER :
*BUS_DELIMITER [ ]
*T_UNIT 1 NS
*C_UNIT 1 FF
*R_UNIT 1 OHM
*L_UNIT 1 HENRY

// XY_UNIT 1 UM
// PARASITIC_TECH p2 at 125.000 degree

*NAME_MAP
*1 clk
*2 a[7]
*3 a[6]
*4 a[5]
*5 a[4]
*6 a[3]
*7 a[2]
*8 a[1]
*9 a[0]
*10 b[7]
*11 b[6]
*12 b[5]
*13 b[4]
*14 b[3]
*15 b[2]
*16 b[1]
*17 b[0]
*18 result[7]
*19 result[6]
*20 result[5]
*21 result[4]
*22 result[3]
*23 result[2]
*24 result[1]
*25 result[0]
*26 VDD
*27 VSS
*28 count_reg[0]
*29 count_reg[1]
*30 count_reg[2]
*31 b_reg_reg[7]
*32 b_reg_reg[6]
*33 b_reg_reg[5]
*34 b_reg_reg[4]
*35 b_reg_reg[3]
*36 b_reg_reg[2]
*37 b_reg_reg[1]
*38 b_reg_reg[0]
*39 a_reg_reg[7]
*40 a_reg_reg[6]
*41 a_reg_reg[5]
*42 a_reg_reg[4]
*43 a_reg_reg[3]
*44 a_reg_reg[2]
*45 a_reg_reg[1]
*46 a_reg_reg[0]
*47 result_reg[7]
*48 result_reg[6]
*49 result_reg[5]
*50 result_reg[4]
*51 result_reg[3]
*52 result_reg[2]
*53 result_reg[1]
*54 result_reg[0]
*55 U88
*56 U89
*57 U90
*58 U91
*59 U92
*60 HFSINV_978_820
*61 U94
*62 U95
*63 U96
*64 U97
*65 U98
*66 U99
*67 U100
*68 U101
*69 U102
*70 U103
*71 U104
*72 U105
*73 U106
*74 U107
*75 U108
*76 U109
*77 U110
*78 U111
*79 U112
*80 U113
*81 U114
*82 U115
*83 U116
*84 U117
*85 U118
*86 U119
*87 U120
*88 U121
*89 U122
*90 U123
*91 HFSINV_1079_821
*92 U125
*93 U126
*94 U127
*95 U128
*96 U129
*97 U130
*98 U131
*99 U132
*100 U133
*101 U134
*102 U135
*103 U136
*104 U137
*105 U138
*106 U139
*107 U140
*108 U141
*109 U142
*110 U143
*111 U144
*112 U145
*113 U146
*114 U147
*115 U148
*116 U149
*117 U150
*118 U151
*119 U152
*120 U153
*121 U154
*122 U155
*123 U156
*124 U157
*125 U158
*126 U159
*127 U160
*128 U161
*129 U162
*130 U163
*131 U164
*132 U165
*133 U166
*134 U167
*135 U168
*136 U169
*137 U170
*138 U171
*139 U172
*140 U173
*141 U174
*142 U175
*143 U176
*144 U177
*145 U178
*146 U179
*147 U180
*148 U181
*149 U182
*150 U183
*151 U184
*152 HFSBUF_678_822
*153 ropt_h_inst_1383
*154 N15
*155 N16
*156 n57
*157 n58
*158 n59
*159 n60
*160 n61
*161 n62
*162 n63
*163 n64
*164 n65
*165 n66
*166 n67
*167 n68
*168 n69
*169 n70
*170 n71
*171 n72
*172 n73
*173 n74
*174 n75
*175 n76
*176 n77
*177 n78
*178 n79
*179 n80
*180 n82
*181 n83
*182 n84
*183 n85
*184 n86
*185 n87
*186 n88
*187 n89
*188 n90
*189 n91
*190 n92
*191 n93
*192 n94
*193 n95
*194 n96
*195 n97
*196 n98
*197 n99
*198 n100
*199 n101
*200 n102
*201 n103
*202 n104
*203 n105
*204 n106
*205 n107
*206 n108
*207 n109
*208 n110
*209 n111
*210 n112
*211 n113
*212 n114
*213 n115
*214 n116
*215 n117
*216 HFSNET_1
*217 n119
*218 n120
*219 n121
*220 n122
*221 n123
*222 n124
*223 n125
*224 n126
*225 n127
*226 n128
*227 n129
*228 n130
*229 n131
*230 n132
*231 n133
*232 n134
*233 n135
*234 n136
*235 n137
*236 n138
*237 n139
*238 n140
*239 n141
*240 n142
*241 n143
*242 n144
*243 n145
*244 n146
*245 n147
*246 n148
*247 n149
*248 n150
*249 n151
*250 HFSNET_0
*251 n153
*252 n154
*253 n155
*254 n156
*255 n157
*256 n158
*257 n159
*258 n160
*259 n161
*260 n162
*261 HFSNET_2
*262 count[2]
*263 count[1]
*264 count[0]
*265 a_reg[7]
*266 a_reg[6]
*267 a_reg[5]
*268 a_reg[4]
*269 a_reg[3]
*270 a_reg[2]
*271 a_reg[1]
*272 a_reg[0]
*273 b_reg[7]
*274 b_reg[6]
*275 b_reg[5]
*276 b_reg[4]
*277 b_reg[3]
*278 b_reg[2]
*279 b_reg[1]
*280 b_reg[0]
*281 ropt_net_0

*PORTS

*1 I *C 17.537 19.024
*2 I *C 25.560 0.143
*3 I *C 20.088 0.143
*4 I *C 16.592 0.143
*5 I *C 12.488 0.143
*6 I *C 7.928 0.143
*7 I *C 3.368 0.143
*8 I *C 31.217 6.560
*9 I *C 31.217 7.168
*10 I *C 31.217 3.824
*11 I *C 27.688 17.233
*12 I *C 24.648 17.233
*13 I *C 21.456 17.233
*14 I *C 17.537 24.496
*15 I *C 17.537 21.152
*16 I *C 14.312 30.609
*17 I *C 11.272 30.609
*18 O *C 5.344 30.609
*19 O *C 0.143 23.888
*20 O *C 0.143 23.280
*21 O *C 0.143 21.152
*22 O *C 0.143 17.504
*23 O *C 0.143 8.384
*24 O *C 10.968 0.143
*25 O *C 5.496 0.143
*26 I *C 15.680 15.376
*27 I *C 15.680 15.376

*D_NET *1 10.40563 //LENGTH 131.887 LUMPCC 0 DR

*CONN
*P *1 I *L 0 *C 17.504 19.024
*I *34:CLK I *L 0.714381 *C 17.960 12.184
*I *36:CLK I *L 0.714381 *C 16.288 11.880
*I *31:CLK I *L 0.714381 *C 21.760 5.192
*I *39:CLK I *L 0.714381 *C 21.715 2.152
*I *44:CLK I *L 0.714381 *C 5.384 8.536
*I *52:CLK I *L 0.714381 *C 6.672 8.536
*I *54:CLK I *L 0.714381 *C 6.560 8.840
*I *43:CLK I *L 0.714381 *C 6.864 12.184
*I *47:CLK I *L 0.714381 *C 2.760 21.912
*I *28:CLK I *L 0.714381 *C 2.715 25.256
*I *30:CLK I *L 0.714381 *C 2.715 25.560
*I *49:CLK I *L 0.714381 *C 8.992 22.216
*I *48:CLK I *L 0.714381 *C 8.688 21.912
*I *35:CLK I *L 0.714381 *C 11.120 25.560
*I *29:CLK I *L 0.714381 *C 8.992 28.600
*I *50:CLK I *L 0.714381 *C 5.344 18.872
*I *42:CLK I *L 0.714381 *C 7.731 15.224
*I *51:CLK I *L 0.714381 *C 7.928 15.528
*I *38:CLK I *L 0.714381 *C 8.040 18.568
*I *45:CLK I *L 0.714381 *C 17.763 5.192
*I *46:CLK I *L 0.714381 *C 18.072 5.496
*I *53:CLK I *L 0.714381 *C 13.552 8.840
*I *37:CLK I *L 0.714381 *C 12.184 18.568
*I *33:CLK I *L 0.714381 *C 17.763 11.880
*I *40:CLK I *L 0.714381 *C 21.760 8.840
*I *32:CLK I *L 0.714381 *C 21.608 11.880
*I *41:CLK I *L 0.714381 *C 17.763 8.840
*N *1:28 *C 17.808 8.840
*N *1:29 *C 17.808 8.853
*N *1:30 *C 21.608 11.867
*N *1:31 *C 21.760 8.854
*N *1:32 *C 21.760 8.992
*N *1:33 *C 21.608 8.992
*N *1:34 *C 21.595 8.992
*N *1:35 *C 17.822 8.992
*N *1:36 *C 17.808 9.005
*N *1:37 *C 17.808 11.880
*N *1:38 *C 17.808 11.867
*N *1:39 *C 17.808 11.727
*N *1:40 *C 17.822 11.728
*N *1:41 *C 18.555 11.728
*N *1:42 *C 18.568 11.742
*N *1:43 *C 18.568 12.183
*N *1:44 *C 18.567 12.336
*N *1:45 *C 12.184 18.555
*N *1:46 *C 12.184 12.350
*N *1:47 *C 12.197 12.336
*N *1:48 *C 13.552 8.854
*N *1:49 *C 13.552 12.336
*N *1:50 *C 13.436 12.336
*N *1:51 *C 13.435 12.336
*N *1:52 *C 17.973 5.496
*N *1:53 *C 17.960 5.510
*N *1:54 *C 17.960 5.648
*N *1:55 *C 17.808 5.192
*N *1:56 *C 17.808 5.206
*N *1:57 *C 17.808 5.648
*N *1:58 *C 17.794 5.648
*N *1:59 *C 7.941 18.568
*N *1:60 *C 7.928 18.555
*N *1:61 *C 7.928 15.542
*N *1:62 *C 7.928 15.680
*N *1:63 *C 7.776 15.680
*N *1:64 *C 7.776 15.224
*N *1:65 *C 7.776 15.224
*N *1:66 *C 7.776 14.782
*N *1:67 *C 7.763 14.768
*N *1:68 *C 5.496 14.768
*N *1:69 *C 5.344 18.858
*N *1:70 *C 5.344 18.430
*N *1:71 *C 5.331 18.416
*N *1:72 *C 8.992 28.587
*N *1:73 *C 8.992 28.158
*N *1:74 *C 8.979 28.144
*N *1:75 *C 11.120 25.548
*N *1:76 *C 11.120 25.408
*N *1:77 *C 11.107 25.408
*N *1:78 *C 9.144 25.408
*N *1:79 *C 9.144 25.104
*N *1:80 *C 8.688 21.912
*N *1:81 *C 8.688 22.052
*N *1:82 *C 8.702 22.064
*N *1:83 *C 8.979 22.064
*N *1:84 *C 8.992 22.076
*N *1:85 *C 8.992 22.230
*N *1:86 *C 8.992 25.091
*N *1:87 *C 8.992 25.104
*N *1:88 *C 7.169 25.104
*N *1:89 *C 7.168 25.105
*N *1:90 *C 7.168 28.131
*N *1:91 *C 7.168 28.144
*N *1:92 *C 2.925 28.144
*N *1:93 *C 2.912 28.131
*N *1:94 *C 2.912 25.712
*N *1:95 *C 2.760 25.712
*N *1:96 *C 2.760 25.560
*N *1:97 *C 2.760 25.560
*N *1:98 *C 2.760 25.256
*N *1:99 *C 2.760 25.256
*N *1:100 *C 2.760 21.912
*N *1:101 *C 2.760 18.569
*N *1:102 *C 2.760 18.428
*N *1:103 *C 2.774 18.416
*N *1:104 *C 4.584 18.416
*N *1:105 *C 4.584 18.402
*N *1:106 *C 4.584 15.225
*N *1:107 *C 4.584 15.085
*N *1:108 *C 4.598 15.072
*N *1:109 *C 5.496 15.071
*N *1:110 *C 5.496 15.059
*N *1:111 *C 6.864 12.197
*N *1:112 *C 6.864 12.627
*N *1:113 *C 6.851 12.640
*N *1:114 *C 5.510 12.640
*N *1:115 *C 5.496 12.640
*N *1:116 *C 6.560 8.828
*N *1:117 *C 6.573 8.536
*N *1:118 *C 6.560 8.549
*N *1:119 *C 6.560 8.688
*N *1:120 *C 6.546 8.688
*N *1:121 *C 5.510 8.688
*N *1:122 *C 5.496 8.702
*N *1:123 *C 5.484 8.536
*N *1:124 *C 5.496 8.535
*N *1:125 *C 5.496 5.662
*N *1:126 *C 5.510 5.648
*N *1:127 *C 16.744 5.648
*N *1:128 *C 16.744 5.662
*N *1:129 *C 21.760 2.152
*N *1:130 *C 21.760 2.166
*N *1:131 *C 21.760 5.179
*N *1:132 *C 21.760 5.039
*N *1:133 *C 21.774 5.040
*N *1:134 *C 23.571 5.040
*N *1:135 *C 23.584 5.054
*N *1:136 *C 23.584 7.459
*N *1:137 *C 23.584 7.473
*N *1:138 *C 23.584 8.080
*N *1:139 *C 16.758 8.080
*N *1:140 *C 16.744 8.080
*N *1:141 *C 16.288 11.880
*N *1:142 *C 16.288 12.020
*N *1:143 *C 16.302 12.032
*N *1:144 *C 16.730 12.032
*N *1:145 *C 16.744 12.032
*N *1:146 *C 16.744 12.322
*N *1:147 *C 16.744 12.336
*N *1:148 *C 18.555 12.336
*N *1:149 *C 18.568 12.324
*N *1:150 *C 17.960 12.197
*N *1:151 *C 17.960 12.336
*N *1:152 *C 17.960 15.528
*N *1:153 *C 17.504 15.528
*N *1:154 *C 17.504 19.011

*CAP
0 *1 0.001
1 *34:CLK 0.001
2 *36:CLK 0.001
3 *31:CLK 0.001
4 *39:CLK 0.009263701
5 *44:CLK 0.01186928
6 *52:CLK 0.01465042
7 *54:CLK 0.001
8 *43:CLK 0.001
9 *47:CLK 0.001
10 *28:CLK 0.00857487
11 *30:CLK 0.008574869
12 *49:CLK 0.001
13 *48:CLK 0.001
14 *35:CLK 0.001
15 *29:CLK 0.001
16 *50:CLK 0.001
17 *42:CLK 0.008613658
18 *51:CLK 0.001
19 *38:CLK 0.01298722
20 *45:CLK 0.009332377
21 *46:CLK 0.01246819
22 *53:CLK 0.001
23 *37:CLK 0.001
24 *33:CLK 0.01018372
25 *40:CLK 0.001
26 *32:CLK 0.001
27 *41:CLK 0.01057052
28 *1:28 0.008976392
29 *1:29 0.008100355
30 *1:30 0.1376859
31 *1:31 0.007750091
32 *1:32 0.01796771
33 *1:33 0.1461245
34 *1:34 0.126336
35 *1:35 0.126336
36 *1:36 0.1199167
37 *1:37 0.008589592
38 *1:38 0.01048752
39 *1:39 0.1223038
40 *1:40 0.03756198
41 *1:41 0.03756198
42 *1:42 0.01923745
43 *1:43 0.0276885
44 *1:44 0.003078693
45 *1:45 0.2749377
46 *1:46 0.2760812
47 *1:47 0.04605781
48 *1:48 0.1421841
49 *1:49 0.1515444
50 *1:50 0.004658673
51 *1:51 0.1601157
52 *1:52 0.01087406
53 *1:53 0.01359618
54 *1:54 0.02272004
55 *1:55 0.007738251
56 *1:56 0.02755463
57 *1:57 0.03489946
58 *1:58 0.03939647
59 *1:59 0.01139309
60 *1:60 0.133506
61 *1:61 0.007363761
62 *1:62 0.1534177
63 *1:63 0.02907491
64 *1:64 0.007019531
65 *1:65 0.04166706
66 *1:66 0.02043852
67 *1:67 0.0898608
68 *1:68 0.1032081
69 *1:69 0.03028673
70 *1:70 0.03143026
71 *1:71 0.03111432
72 *1:72 0.01740359
73 *1:73 0.01854712
74 *1:74 0.06149335
75 *1:75 0.007254172
76 *1:76 0.008397703
77 *1:77 0.071885
78 *1:78 0.08482617
79 *1:79 0.01840873
80 *1:80 0.007908946
81 *1:81 0.009052477
82 *1:82 0.01230128
83 *1:83 0.01230128
84 *1:84 0.009522477
85 *1:85 0.1311024
86 *1:86 0.1209444
87 *1:87 0.08174013
88 *1:88 0.07449362
89 *1:89 0.1018763
90 *1:90 0.1018763
91 *1:91 0.1937953
92 *1:92 0.1305228
93 *1:93 0.08482136
94 *1:94 0.09399747
95 *1:95 0.01606713
96 *1:96 0.006980742
97 *1:97 0.01838513
98 *1:98 0.006980744
99 *1:99 0.1273526
100 *1:100 0.2392879
101 *1:101 0.1333183
102 *1:102 0.006966356
103 *1:103 0.0670508
104 *1:104 0.09994415
105 *1:105 0.142163
106 *1:106 0.153131
107 *1:107 0.007409918
108 *1:108 0.03899092
109 *1:109 0.05055918
110 *1:110 0.1336179
111 *1:111 0.02240641
112 *1:112 0.02354994
113 *1:113 0.05751718
114 *1:114 0.05751718
115 *1:115 0.3444495
116 *1:116 0.005691574
117 *1:117 0.0130563
118 *1:118 0.007020013
119 *1:119 0.01544925
120 *1:120 0.04123484
121 *1:121 0.04123484
122 *1:122 0.2224782
123 *1:123 0.01027515
124 *1:124 0.1465647
125 *1:125 0.1329542
126 *1:126 0.4483622
127 *1:127 0.4895377
128 *1:128 0.1297656
129 *1:129 0.007669574
130 *1:130 0.1084945
131 *1:131 0.007629831
132 *1:132 0.118862
133 *1:133 0.06921177
134 *1:134 0.06921177
135 *1:135 0.1037794
136 *1:136 0.1037794
137 *1:137 0.01837369
138 *1:138 0.249876
139 *1:139 0.2279442
140 *1:140 0.2965994
141 *1:141 0.007726567
142 *1:142 0.008870098
143 *1:143 0.02091192
144 *1:144 0.02091192
145 *1:145 0.1787926
146 *1:146 0.01195878
147 *1:147 0.1868208
148 *1:148 0.07276291
149 *1:149 0.03122724
150 *1:150 0.006819245
151 *1:151 0.1617038
152 *1:152 0.148657
153 *1:153 0.1375385
154 *1:154 0.115825

*RES
0 *1 *1:154 0.5
1 *1:131 *31:CLK 1
2 *1:129 *39:CLK 0.09166668
3 *1:130 *1:129 1
4 *1:31 *40:CLK 1
5 *1:30 *32:CLK 1
6 *1:150 *34:CLK 1
7 *1:52 *46:CLK 0.1658334
8 *1:53 *1:52 1
9 *1:42 *1:41 0.5
10 *1:41 *1:40 1.308929
11 *1:39 *1:38 0.2341667
12 *1:39 *1:36 4.859822
13 *1:40 *1:39 0.5
14 *1:33 *1:32 0.2714286
15 *1:33 *1:30 5.133036
16 *1:34 *1:33 0.5
17 *1:36 *1:35 0.5
18 *1:36 *1:29 0.255
19 *1:35 *1:34 6.7375
20 *1:37 *33:CLK 0.09166668
21 *1:38 *1:37 1
22 *1:28 *41:CLK 0.09166668
23 *1:29 *1:28 1
24 *1:55 *45:CLK 0.09166668
25 *1:56 *1:55 1
26 *1:154 *1:153 6.21875
27 *1:149 *1:148 0.5
28 *1:149 *1:44 0.001
29 *1:149 *1:43 0.2341667
30 *1:148 *1:147 3.233036
31 *1:57 *1:56 0.7901786
32 *1:57 *1:54 0.2714286
33 *1:58 *1:57 0.5
34 *1:146 *1:145 0.5187501
35 *1:147 *1:146 0.5
36 *1:147 *1:51 5.908929
37 *1:128 *1:127 0.5
38 *1:127 *1:126 20.06161
39 *1:127 *1:58 1.875893
40 *1:132 *1:131 0.2341667
41 *1:132 *1:130 5.13125
42 *1:133 *1:132 0.5
43 *1:135 *1:134 0.5
44 *1:134 *1:133 3.208929
45 *1:136 *1:135 4.294643
46 *1:137 *1:136 0.5
47 *1:140 *1:139 0.5
48 *1:140 *1:128 4.31875
49 *1:139 *1:138 12.19018
50 *1:145 *1:144 0.5
51 *1:145 *1:140 7.057143
52 *1:144 *1:143 0.7660714
53 *1:142 *1:141 0.2325
54 *1:143 *1:142 0.5
55 *1:141 *36:CLK 1
56 *1:50 *1:49 0.2071429
57 *1:51 *1:50 0.5
58 *1:51 *1:47 2.209822
59 *1:48 *53:CLK 1
60 *1:46 *1:45 11.08036
61 *1:47 *1:46 0.5
62 *1:45 *37:CLK 1
63 *1:76 *1:75 0.2325
64 *1:77 *1:76 0.5
65 *1:75 *35:CLK 1
66 *1:86 *1:85 5.108929
67 *1:87 *1:86 0.5
68 *1:87 *1:79 0.2714286
69 *1:85 *49:CLK 1
70 *1:85 *1:84 0.255
71 *1:84 *1:83 0.5
72 *1:83 *1:82 0.4946429
73 *1:81 *1:80 0.2325
74 *1:82 *1:81 0.5
75 *1:80 *48:CLK 1
76 *1:59 *38:CLK 0.1658333
77 *1:60 *1:59 1
78 *1:61 *51:CLK 1
79 *1:64 *42:CLK 0.09166668
80 *1:65 *1:64 1
81 *1:65 *1:63 0.8142858
82 *1:73 *1:72 0.7660714
83 *1:74 *1:73 0.5
84 *1:72 *29:CLK 1
85 *1:88 *1:87 3.255358
86 *1:89 *1:88 0.5
87 *1:91 *1:90 0.5
88 *1:91 *1:74 3.233036
89 *1:90 *1:89 5.402678
90 *1:116 *54:CLK 1
91 *1:117 *52:CLK 0.1658334
92 *1:118 *1:117 1
93 *1:66 *1:65 0.7901786
94 *1:67 *1:66 0.5
95 *1:110 *1:109 0.5
96 *1:109 *1:108 1.604464
97 *1:109 *1:68 0.5410715
98 *1:115 *1:114 0.5
99 *1:115 *1:110 4.31875
100 *1:114 *1:113 2.394643
101 *1:112 *1:111 0.7660714
102 *1:113 *1:112 0.5
103 *1:111 *43:CLK 1
104 *1:119 *1:118 0.2325
105 *1:119 *1:116 0.2325
106 *1:120 *1:119 0.5
107 *1:122 *1:121 0.5
108 *1:122 *1:115 7.033036
109 *1:121 *1:120 1.851786
110 *1:125 *1:124 5.13125
111 *1:126 *1:125 0.5
112 *1:123 *44:CLK 0.1658334
113 *1:124 *1:123 1
114 *1:124 *1:122 0.2775
115 *1:70 *1:69 0.7660714
116 *1:71 *1:70 0.5
117 *1:69 *50:CLK 1
118 *1:107 *1:106 0.2341667
119 *1:108 *1:107 0.5
120 *1:105 *1:104 0.5
121 *1:104 *1:103 3.233036
122 *1:104 *1:71 1.333036
123 *1:93 *1:92 0.5
124 *1:92 *1:91 7.575893
125 *1:100 *47:CLK 1
126 *1:100 *1:99 5.971429
127 *1:102 *1:101 0.2341667
128 *1:103 *1:102 0.5
129 *1:96 *30:CLK 0.09166668
130 *1:97 *1:96 1
131 *1:97 *1:95 0.2714286
132 *1:98 *28:CLK 0.09166668
133 *1:99 *1:98 1
134 *1:99 *1:97 0.5428572
135 *1:101 *1:100 5.969644
136 *1:95 *1:94 0.2714286
137 *1:94 *1:93 4.31875
138 *1:106 *1:105 5.674108
139 *1:63 *1:62 0.2714286
140 *1:62 *1:61 0.2473214
141 *1:62 *1:60 5.133036
142 *1:49 *1:48 6.21875
143 *1:153 *1:152 0.8142858
144 *1:152 *1:151 5.7
145 *1:54 *1:53 0.2473214
146 *1:151 *1:150 0.2473214
147 *1:151 *1:149 1.085714
148 *1:43 *1:42 0.7883929
149 *1:32 *1:31 0.2473214
150 *1:68 *1:67 4.047321
151 *1:79 *1:78 0.5428572
152 *1:78 *1:77 3.504465
153 *1:138 *1:137 1.083929

*END

*D_NET *2 0.5527898 //LENGTH 6.316 LUMPCC 0 DR

*CONN
*P *2 I *L 0 *C 25.560 0.258
*I *116:A2 I *L 0.557409 *C 27.262 2.937
*N *2:2 *C 27.384 2.912
*N *2:3 *C 27.384 2.913
*N *2:4 *C 27.384 3.506
*N *2:5 *C 27.370 3.520
*N *2:6 *C 25.878 3.520
*N *2:7 *C 25.864 3.506
*N *2:8 *C 25.864 0.494
*N *2:9 *C 25.851 0.480
*N *2:10 *C 25.574 0.480
*N *2:11 *C 25.560 0.467

*CAP
0 *2 0.01154474
1 *116:A2 0.009605543
2 *2:2 0.01560536
3 *2:3 0.03464257
4 *2:4 0.03445766
5 *2:5 0.05948462
6 *2:6 0.05948462
7 *2:7 0.1495935
8 *2:8 0.1495935
9 *2:9 0.009505996
10 *2:10 0.009505996
11 *2:11 0.00976571

*RES
0 *2 *2:11 0.3723215
1 *2:2 *116:A2 0.244
2 *2:3 *2:2 1
3 *2:4 *2:3 1.059821
4 *2:5 *2:4 0.5
5 *2:7 *2:6 0.5
6 *2:6 *2:5 2.666071
7 *2:8 *2:7 5.380358
8 *2:9 *2:8 0.5
9 *2:11 *2:10 0.5
10 *2:10 *2:9 0.4946429

*END

*D_NET *3 0.207528 //LENGTH 3.207 LUMPCC 0 DR

*CONN
*P *3 I *L 0 *C 20.088 0.272
*I *119:A2 I *L 0.557409 *C 19.632 2.912
*N *3:2 *C 19.646 2.912
*N *3:3 *C 20.088 2.912

*CAP
0 *3 0.08693901
1 *119:A2 0.001
2 *3:2 0.01486373
3 *3:3 0.1047253

*RES
0 *3 *3:3 4.714286
1 *3:2 *119:A2 1
2 *3:3 *3:2 0.7901786

*END

*D_NET *4 0.3455145 //LENGTH 5.105 LUMPCC 0 DR

*CONN
*P *4 I *L 0 *C 16.592 0.258
*I *122:A2 I *L 0.557409 *C 17.808 2.912
*N *4:2 *C 17.808 2.730
*N *4:3 *C 17.808 2.900
*N *4:4 *C 17.794 2.912
*N *4:5 *C 16.302 2.912
*N *4:6 *C 16.288 2.899
*N *4:7 *C 16.288 0.494
*N *4:8 *C 16.302 0.480
*N *4:9 *C 16.579 0.480
*N *4:10 *C 16.592 0.467

*CAP
0 *4 0.01161435
1 *122:A2 0.001
2 *4:2 0.01115477
3 *4:3 0.006453169
4 *4:4 0.05915361
5 *4:5 0.05915361
6 *4:6 0.08389061
7 *4:7 0.08389061
8 *4:8 0.009684226
9 *4:9 0.009684226
10 *4:10 0.009835311

*RES
0 *4 *4:10 0.3723215
1 *4:3 *122:A2 1
2 *4:3 *4:2 0.2825
3 *4:4 *4:3 0.5
4 *4:6 *4:5 0.5
5 *4:5 *4:4 2.666071
6 *4:7 *4:6 4.294643
7 *4:8 *4:7 0.5
8 *4:10 *4:9 0.5
9 *4:9 *4:8 0.4946429

*END

*D_NET *5 0.4893909 //LENGTH 6.846 LUMPCC 0 DR

*CONN
*P *5 I *L 0 *C 12.488 0.258
*I *125:A2 I *L 0.557409 *C 9.296 2.912
*N *5:2 *C 9.296 2.899
*N *5:3 *C 9.296 2.317
*N *5:4 *C 9.309 2.304
*N *5:5 *C 12.171 2.304
*N *5:6 *C 12.184 2.304
*N *5:7 *C 12.184 0.494
*N *5:8 *C 12.197 0.480
*N *5:9 *C 12.475 0.480
*N *5:10 *C 12.488 0.467

*CAP
0 *5 0.01161757
1 *125:A2 0.001
2 *5:2 0.02461461
3 *5:3 0.02575814
4 *5:4 0.1104523
5 *5:5 0.1104523
6 *5:6 0.08807559
7 *5:7 0.08807559
8 *5:8 0.009753122
9 *5:9 0.009753122
10 *5:10 0.009838533

*RES
0 *5 *5:10 0.3723215
1 *5:2 *125:A2 1
2 *5:3 *5:2 1.0375
3 *5:4 *5:3 0.5
4 *5:6 *5:5 0.5
5 *5:5 *5:4 5.108929
6 *5:7 *5:6 3.233036
7 *5:8 *5:7 0.5
8 *5:10 *5:9 0.5
9 *5:9 *5:8 0.4946429

*END

*D_NET *6 0.3247264 //LENGTH 3.818 LUMPCC 0 DR

*CONN
*P *6 I *L 0 *C 7.928 0.258
*I *128:A2 I *L 0.557409 *C 7.928 2.912
*N *6:2 *C 7.928 2.780
*N *6:3 *C 7.928 2.900
*N *6:4 *C 7.927 2.912
*N *6:5 *C 7.638 2.912
*N *6:6 *C 7.624 2.899
*N *6:7 *C 7.624 2.304
*N *6:8 *C 7.776 2.304
*N *6:9 *C 7.776 0.480
*N *6:10 *C 7.928 0.480

*CAP
0 *6 0.01304563
1 *128:A2 0.001
2 *6:2 0.01194835
3 *6:3 0.007246746
4 *6:4 0.01446455
5 *6:5 0.01446455
6 *6:6 0.03280414
7 *6:7 0.0421262
8 *6:8 0.08489096
9 *6:9 0.0835188
10 *6:10 0.0192165

*RES
0 *6 *6:10 0.3964286
1 *6:3 *128:A2 1
2 *6:3 *6:2 0.1991667
3 *6:4 *6:3 0.5
4 *6:6 *6:5 0.5
5 *6:5 *6:4 0.5169643
6 *6:7 *6:6 1.061607
7 *6:8 *6:7 0.2714286
8 *6:9 *6:8 3.257143
9 *6:10 *6:9 0.2714286

*END

*D_NET *7 0.3253977 //LENGTH 5.022 LUMPCC 0 DR

*CONN
*P *7 I *L 0 *C 3.368 0.258
*I *131:A2 I *L 0.557409 *C 4.432 2.912
*N *7:2 *C 4.432 2.899
*N *7:3 *C 4.432 2.622
*N *7:4 *C 4.418 2.608
*N *7:5 *C 3.078 2.608
*N *7:6 *C 3.064 2.608
*N *7:7 *C 3.064 0.494
*N *7:8 *C 3.078 0.480
*N *7:9 *C 3.355 0.480
*N *7:10 *C 3.368 0.467

*CAP
0 *7 0.01156105
1 *131:A2 0.001
2 *7:2 0.01183667
3 *7:3 0.0129802
4 *7:4 0.04613694
5 *7:5 0.04613694
6 *7:6 0.08350215
7 *7:7 0.08350215
8 *7:8 0.00947978
9 *7:9 0.00947978
10 *7:10 0.009782014

*RES
0 *7 *7:10 0.3723215
1 *7:2 *131:A2 1
2 *7:3 *7:2 0.4946428
3 *7:4 *7:3 0.5
4 *7:6 *7:5 0.5
5 *7:5 *7:4 2.394643
6 *7:7 *7:6 3.775893
7 *7:8 *7:7 0.5
8 *7:10 *7:9 0.5
9 *7:9 *7:8 0.4946429

*END

*D_NET *8 0.1690912 //LENGTH 2.667 LUMPCC 0 DR

*CONN
*P *8 I *L 0 *C 31.102 6.560
*I *134:A2 I *L 0.557409 *C 28.904 6.256
*N *8:2 *C 28.904 6.270
*N *8:3 *C 28.904 6.546
*N *8:4 *C 28.918 6.560

*CAP
0 *8 0.06519276
1 *134:A2 0.001
2 *8:2 0.0191706
3 *8:3 0.02031413
4 *8:4 0.06341372

*RES
0 *8 *8:4 3.900893
1 *8:2 *134:A2 1
2 *8:3 *8:2 0.4946429
3 *8:4 *8:3 0.5

*END

*D_NET *9 0.2020939 //LENGTH 3.378 LUMPCC 0 DR

*CONN
*P *9 I *L 0 *C 31.102 7.168
*I *137:A2 I *L 0.557409 *C 28.904 7.804
*N *9:2 *C 29.056 7.594
*N *9:3 *C 29.044 7.776
*N *9:4 *C 29.056 7.764
*N *9:5 *C 29.070 7.776
*N *9:6 *C 30.867 7.776
*N *9:7 *C 30.880 7.763
*N *9:8 *C 30.880 7.182
*N *9:9 *C 30.894 7.168

*CAP
0 *9 0.009980719
1 *137:A2 0.01108488
2 *9:2 0.01203377
3 *9:3 0.009490756
4 *9:4 0.008660614
5 *9:5 0.05311451
6 *9:6 0.05311462
7 *9:7 0.01820612
8 *9:8 0.01820612
9 *9:9 0.008201785

*RES
0 *9 *9:9 0.3723215
1 *9:3 *137:A2 0.2325
2 *9:4 *9:3 1
3 *9:4 *9:2 0.2825
4 *9:5 *9:4 0.5
5 *9:6 *9:5 3.208929
6 *9:7 *9:6 0.5
7 *9:9 *9:8 0.5
8 *9:8 *9:7 1.0375

*END

*D_NET *10 0.196414 //LENGTH 3.480 LUMPCC 0 DR

*CONN
*P *10 I *L 0 *C 31.081 3.824
*I *92:A2 I *L 0.557409 *C 28.904 2.912
*N *10:2 *C 28.904 2.925
*N *10:3 *C 28.904 3.203
*N *10:4 *C 28.918 3.216
*N *10:5 *C 31.019 3.216
*N *10:6 *C 31.032 3.230
*N *10:7 *C 31.032 3.811
*N *10:8 *C 31.032 3.824

*CAP
0 *10 0.00451979
1 *92:A2 0.001
2 *10:2 0.01485926
3 *10:3 0.01600279
4 *10:4 0.05881471
5 *10:5 0.05881471
6 *10:6 0.01983101
7 *10:7 0.01983101
8 *10:8 0.002740756

*RES
0 *10 *10:8 0.09166668
1 *10:2 *92:A2 1
2 *10:3 *10:2 0.4946429
3 *10:4 *10:3 0.5
4 *10:6 *10:5 0.5
5 *10:5 *10:4 3.751786
6 *10:7 *10:6 1.0375
7 *10:8 *10:7 0.5

*END

*D_NET *11 0.3178993 //LENGTH 4.384 LUMPCC 0 DR

*CONN
*P *11 I *L 0 *C 27.688 17.118
*I *95:A2 I *L 0.557409 *C 28.114 14.489
*N *11:2 *C 27.399 14.464
*N *11:3 *C 27.383 14.464
*N *11:4 *C 27.232 14.464
*N *11:5 *C 27.232 16.896
*N *11:6 *C 27.383 16.896
*N *11:7 *C 27.398 16.896
*N *11:8 *C 27.675 16.896
*N *11:9 *C 27.688 16.910

*CAP
0 *11 0.01063736
1 *95:A2 0.04390316
2 *11:2 0.04230904
3 *11:3 0.005673285
4 *11:4 0.09182606
5 *11:5 0.09086785
6 *11:6 0.004530171
7 *11:7 0.00964701
8 *11:8 0.00964701
9 *11:9 0.008858331

*RES
0 *11 *11:9 0.3723215
1 *11:2 *95:A2 1.43
2 *11:3 *11:2 1
3 *11:6 *11:5 0.2696429
4 *11:7 *11:6 0.5
5 *11:9 *11:8 0.5
6 *11:8 *11:7 0.4946429
7 *11:4 *11:3 0.2696429
8 *11:5 *11:4 4.342858

*END

*D_NET *12 0.255251 //LENGTH 3.495 LUMPCC 0 DR

*CONN
*P *12 I *L 0 *C 24.648 17.104
*I *98:A2 I *L 0.557409 *C 25.393 14.489
*N *12:2 *C 24.663 14.464
*N *12:3 *C 24.648 14.478

*CAP
0 *12 0.08634983
1 *98:A2 0.04286981
2 *12:2 0.04127569
3 *12:3 0.0847557

*RES
0 *12 *12:3 4.690179
1 *12:2 *98:A2 1.46
2 *12:3 *12:2 1

*END

*D_NET *13 0.4008683 //LENGTH 5.892 LUMPCC 0 DR

*CONN
*P *13 I *L 0 *C 21.456 17.200
*I *101:A2 I *L 0.557409 *C 18.872 14.464
*N *13:2 *C 18.872 14.282
*N *13:3 *C 18.872 14.452
*N *13:4 *C 18.886 14.464
*N *13:5 *C 21.139 14.464
*N *13:6 *C 21.152 14.478
*N *13:7 *C 21.152 17.187
*N *13:8 *C 21.166 17.200
*N *13:9 *C 21.443 17.200

*CAP
0 *13 0.001
1 *101:A2 0.001
2 *13:2 0.01191457
3 *13:3 0.007212973
4 *13:4 0.08821651
5 *13:5 0.08821651
6 *13:6 0.09215961
7 *13:7 0.09215961
8 *13:8 0.009486226
9 *13:9 0.009502272

*RES
0 *13 *13:9 0.5
1 *13:3 *101:A2 1
2 *13:3 *13:2 0.2825
3 *13:4 *13:3 0.5
4 *13:6 *13:5 0.5
5 *13:5 *13:4 4.023214
6 *13:7 *13:6 4.8375
7 *13:8 *13:7 0.5
8 *13:9 *13:8 0.4946429

*END

*D_NET *14 0.4426318 //LENGTH 5.871 LUMPCC 0 DR

*CONN
*P *14 I *L 0 *C 17.401 24.496
*I *104:A2 I *L 0.557409 *C 15.224 24.496
*N *14:2 *C 15.224 24.483
*N *14:3 *C 15.224 24.206
*N *14:4 *C 15.211 24.192
*N *14:5 *C 14.630 24.192
*N *14:6 *C 14.616 24.178
*N *14:7 *C 14.616 23.598
*N *14:8 *C 14.630 23.584
*N *14:9 *C 17.352 23.584
*N *14:10 *C 17.352 23.598
*N *14:11 *C 17.352 24.483
*N *14:12 *C 17.352 24.496

*CAP
0 *14 0.004554787
1 *104:A2 0.001
2 *14:2 0.02159507
3 *14:3 0.0227386
4 *14:4 0.02758114
5 *14:5 0.02758114
6 *14:6 0.03454787
7 *14:7 0.03454787
8 *14:8 0.1037474
9 *14:9 0.1037474
10 *14:10 0.02910738
11 *14:11 0.02910738
12 *14:12 0.002775753

*RES
0 *14 *14:12 0.09166668
1 *14:2 *104:A2 1
2 *14:3 *14:2 0.4946429
3 *14:4 *14:3 0.5
4 *14:6 *14:5 0.5
5 *14:5 *14:4 1.0375
6 *14:7 *14:6 1.0375
7 *14:8 *14:7 0.5
8 *14:10 *14:9 0.5
9 *14:9 *14:8 4.861607
10 *14:11 *14:10 1.580357
11 *14:12 *14:11 0.5

*END

*D_NET *15 0.267469 //LENGTH 3.978 LUMPCC 0 DR

*CONN
*P *15 I *L 0 *C 17.504 21.152
*I *107:A2 I *L 0.557409 *C 15.376 19.632
*N *15:2 *C 15.376 19.646
*N *15:3 *C 15.376 20.530
*N *15:4 *C 15.389 20.544
*N *15:5 *C 17.491 20.544
*N *15:6 *C 17.504 20.558
*N *15:7 *C 17.504 21.139

*CAP
0 *15 0.001
1 *107:A2 0.001
2 *15:2 0.04371473
3 *15:3 0.04485827
4 *15:4 0.07092469
5 *15:5 0.07092479
6 *15:6 0.01751523
7 *15:7 0.01753127

*RES
0 *15 *15:7 0.5
1 *15:2 *107:A2 1
2 *15:3 *15:2 1.580357
3 *15:4 *15:3 0.5
4 *15:5 *15:4 3.751786
5 *15:6 *15:5 0.5
6 *15:7 *15:6 1.0375

*END

*D_NET *16 0.208197 //LENGTH 2.959 LUMPCC 0 DR

*CONN
*P *16 I *L 0 *C 14.312 30.480
*I *110:A2 I *L 0.557409 *C 14.464 27.840
*N *16:2 *C 14.464 27.854
*N *16:3 *C 14.464 28.144
*N *16:4 *C 14.312 28.144

*CAP
0 *16 0.07828114
1 *110:A2 0.001
2 *16:2 0.01699314
3 *16:3 0.02677867
4 *16:4 0.08514411

*RES
0 *16 *16:4 4.171429
1 *16:2 *110:A2 1
2 *16:4 *16:3 0.2714286
3 *16:3 *16:2 0.5187501

*END

*D_NET *17 0.3657704 //LENGTH 5.561 LUMPCC 0 DR

*CONN
*P *17 I *L 0 *C 11.272 30.494
*I *113:A2 I *L 0.557409 *C 12.944 27.840
*N *17:2 *C 12.944 27.658
*N *17:3 *C 12.944 27.828
*N *17:4 *C 12.931 27.840
*N *17:5 *C 10.982 27.840
*N *17:6 *C 10.968 27.854
*N *17:7 *C 10.968 30.259
*N *17:8 *C 10.982 30.272
*N *17:9 *C 11.258 30.272
*N *17:10 *C 11.272 30.286

*CAP
0 *17 0.01109789
1 *113:A2 0.001
2 *17:2 0.01318113
3 *17:3 0.008479526
4 *17:4 0.07145467
5 *17:5 0.07145467
6 *17:6 0.08033235
7 *17:7 0.08033235
8 *17:8 0.009559458
9 *17:9 0.009559458
10 *17:10 0.009318857

*RES
0 *17 *17:10 0.3723215
1 *17:3 *113:A2 1
2 *17:3 *17:2 0.2825
3 *17:4 *17:3 0.5
4 *17:6 *17:5 0.5
5 *17:5 *17:4 3.480357
6 *17:7 *17:6 4.294643
7 *17:8 *17:7 0.5
8 *17:10 *17:9 0.5
9 *17:9 *17:8 0.4946429

*END

*D_NET *18 0.6850244 //LENGTH 9.647 LUMPCC 0 DR

*CONN
*I *47:Q O *L 0 *C 5.800 21.456
*P *18 O *L 0 *C 5.344 30.480
*N *18:2 *C 5.344 21.608
*N *18:3 *C 5.800 21.608
*N *18:4 *C 5.800 21.470

*CAP
0 *47:Q 0.001
1 *18 0.3141414
2 *18:2 0.3314752
3 *18:3 0.02933213
4 *18:4 0.009075755

*RES
0 *47:Q *18:4 1
1 *18:4 *18:3 0.2473214
2 *18:2 *18 15.84286
3 *18:3 *18:2 0.8142858

*END

*D_NET *19 1.646733 //LENGTH 19.448 LUMPCC 0 DR

*CONN
*I *48:Q O *L 0 *C 11.728 21.456
*I *140:A5 I *L 0.569714 *C 6.256 17.656
*P *19 O *L 0 *C 0.258 23.888
*N *19:3 *C 6.243 23.888
*N *19:4 *C 6.256 23.875
*N *19:5 *C 6.256 17.657
*N *19:6 *C 6.256 22.064
*N *19:7 *C 6.270 22.064
*N *19:8 *C 7.003 22.064
*N *19:9 *C 7.016 22.050
*N *19:10 *C 7.016 21.153
*N *19:11 *C 7.017 21.152
*N *19:12 *C 11.715 21.152
*N *19:13 *C 11.728 21.166
*N *19:14 *C 11.728 21.443

*CAP
0 *48:Q 0.001
1 *140:A5 0.001
2 *19 0.1958683
3 *19:3 0.1940893
4 *19:4 0.1099391
5 *19:5 0.2358786
6 *19:6 0.3487402
7 *19:7 0.03136411
8 *19:8 0.03136411
9 *19:9 0.05783818
10 *19:10 0.05783818
11 *19:11 0.1715719
12 *19:12 0.1715719
13 *19:13 0.01990617
14 *19:14 0.01876264

*RES
0 *48:Q *19:14 1
1 *19:6 *19:5 7.869643
2 *19:6 *19:4 3.233036
3 *19:7 *19:6 0.5
4 *19:9 *19:8 0.5
5 *19:8 *19:7 1.308929
6 *19:10 *19:9 1.602679
7 *19:11 *19:10 0.5
8 *19:13 *19:12 0.5
9 *19:12 *19:11 8.388392
10 *19:14 *19:13 0.4946429
11 *19:5 *140:A5 1
12 *19:4 *19:3 0.5
13 *19:3 *19 10.68661

*END

*D_NET *20 1.171705 //LENGTH 17.775 LUMPCC 0 DR

*CONN
*I *49:Q O *L 0 *C 12.032 22.672
*P *20 O *L 0 *C 0.258 23.280
*I *142:A5 I *L 0.569714 *C 7.016 21.000
*N *20:3 *C 12.032 22.490
*N *20:4 *C 11.850 22.672
*N *20:5 *C 12.032 22.490
*N *20:6 *C 7.016 20.986
*N *20:7 *C 7.016 20.254
*N *20:8 *C 7.030 20.240
*N *20:9 *C 7.763 20.240
*N *20:10 *C 7.776 20.254
*N *20:11 *C 0.467 23.280
*N *20:12 *C 0.480 23.267
*N *20:13 *C 0.480 22.686
*N *20:14 *C 0.494 22.672
*N *20:15 *C 7.763 22.672
*N *20:16 *C 7.776 22.659
*N *20:17 *C 7.790 22.672
*N *20:18 *C 12.019 22.672
*N *20:19 *C 12.032 22.660
*N *20:20 *C 12.020 22.672
*N *20:21 *C 12.032 22.660

*CAP
0 *49:Q 0.001
1 *20 0.01078472
2 *142:A5 0.001
3 *20:3 0.01088634
4 *20:4 0.01229988
5 *20:5 0.009568431
6 *20:6 0.04796376
7 *20:7 0.04910729
8 *20:8 0.03537484
9 *20:9 0.03537494
10 *20:10 0.08208967
11 *20:11 0.009005788
12 *20:12 0.01900038
13 *20:13 0.01900038
14 *20:14 0.2289804
15 *20:15 0.2289804
16 *20:16 0.08031089
17 *20:17 0.1350197
18 *20:18 0.1350197
19 *20:19 0.006010712
20 *20:20 0.008741915
21 *20:21 0.006184743

*RES
0 *49:Q *20:21 1
1 *20:16 *20:15 0.5
2 *20:16 *20:10 4.294643
3 *20:17 *20:16 0.5
4 *20:19 *20:18 0.5
5 *20:19 *20:5 0.2825
6 *20:18 *20:17 7.551786
7 *20:20 *20:19 0.5
8 *20:20 *20:4 0.2825
9 *20:21 *20:20 0.5
10 *20:21 *20:3 0.2825
11 *20:9 *20:8 1.308929
12 *20:10 *20:9 0.5
13 *20:7 *20:6 1.308929
14 *20:8 *20:7 0.5
15 *20:6 *142:A5 1
16 *20:15 *20:14 12.98036
17 *20:14 *20:13 0.5
18 *20:13 *20:12 1.0375
19 *20:11 *20 0.3723215
20 *20:12 *20:11 0.5

*END

*D_NET *21 0.7762365 //LENGTH 10.361 LUMPCC 0 DR

*CONN
*I *50:Q O *L 0 *C 2.304 19.328
*P *21 O *L 0 *C 0.258 21.152
*I *144:A5 I *L 0.569714 *C 4.280 17.656
*N *21:3 *C 4.280 17.669
*N *21:4 *C 4.280 19.315
*N *21:5 *C 4.293 19.328
*N *21:6 *C 4.723 19.328
*N *21:7 *C 4.736 19.341
*N *21:8 *C 4.736 20.530
*N *21:9 *C 4.723 20.544
*N *21:10 *C 0.467 21.152
*N *21:11 *C 0.480 21.139
*N *21:12 *C 0.480 20.558
*N *21:13 *C 0.494 20.544
*N *21:14 *C 2.304 20.544
*N *21:15 *C 2.304 20.530
*N *21:16 *C 2.304 19.341

*CAP
0 *50:Q 0.001
1 *21 0.009789977
2 *144:A5 0.001
3 *21:3 0.09850202
4 *21:4 0.09964554
5 *21:5 0.02107985
6 *21:6 0.02107985
7 *21:7 0.04962864
8 *21:8 0.04962864
9 *21:9 0.07373966
10 *21:10 0.008011044
11 *21:11 0.01755038
12 *21:12 0.01755038
13 *21:13 0.05310605
14 *21:14 0.1286246
15 *21:15 0.06372169
16 *21:16 0.06257816

*RES
0 *50:Q *21:16 1
1 *21:8 *21:7 2.123214
2 *21:9 *21:8 0.5
3 *21:7 *21:6 0.5
4 *21:6 *21:5 0.7660714
5 *21:4 *21:3 2.9375
6 *21:5 *21:4 0.5
7 *21:3 *144:A5 1
8 *21:15 *21:14 0.5
9 *21:14 *21:13 3.233036
10 *21:14 *21:9 4.31875
11 *21:16 *21:15 2.123214
12 *21:13 *21:12 0.5
13 *21:12 *21:11 1.0375
14 *21:10 *21 0.3723215
15 *21:11 *21:10 0.5

*END

*D_NET *22 1.251467 //LENGTH 15.465 LUMPCC 0 DR

*CONN
*I *51:Q O *L 0 *C 10.968 15.984
*I *146:A5 I *L 0.569714 *C 6.104 14.312
*P *22 O *L 0 *C 0.258 17.504
*N *22:3 *C 0.480 17.504
*N *22:4 *C 0.480 16.896
*N *22:5 *C 6.104 14.325
*N *22:6 *C 6.104 14.920
*N *22:7 *C 5.952 14.920